<?xml version="1.0" encoding="UTF-8"?>

<!-- generated on 2025-04-09 19:44:44 by Eclipse SUMO netedit Version 1.18.0
<configuration xmlns:xsi="http://www.w3.org/2001/XMLSchema-instance" xsi:noNamespaceSchemaLocation="http://sumo.dlr.de/xsd/neteditConfiguration.xsd">

    <input>
        <sumo-net-file value="D:\学习资料\研究生\2 个人研究\Signal timing with perimeter control\Codes\network\GridBufferFull1\GridBuffer.net.xml"/>
    </input>

    <output>
        <output-file value="D:\学习资料\研究生\2 个人研究\Signal timing with perimeter control\Codes\network\GridBufferFull1\GridBuffer.net.xml"/>
    </output>

    <processing>
        <geometry.min-radius.fix.railways value="false"/>
        <geometry.max-grade.fix value="false"/>
        <offset.disable-normalization value="true"/>
        <lefthand value="0"/>
    </processing>

    <junctions>
        <no-turnarounds value="true"/>
        <junctions.corner-detail value="5"/>
        <junctions.limit-turn-speed value="5.50"/>
        <rectangular-lane-cut value="0"/>
    </junctions>

    <pedestrian>
        <walkingareas value="0"/>
    </pedestrian>

</configuration>
-->

<net version="1.16" junctionCornerDetail="5" limitTurnSpeed="5.50" xmlns:xsi="http://www.w3.org/2001/XMLSchema-instance" xsi:noNamespaceSchemaLocation="http://sumo.dlr.de/xsd/net_file.xsd">

    <location netOffset="0.00,0.00" convBoundary="-1500.00,-1500.00,3500.00,3500.00" origBoundary="0.00,0.00,2000.00,2000.00" projParameter="!"/>

    <edge id=":I22_0" function="internal">
        <lane id=":I22_0_0" index="0" speed="6.51" length="9.03" shape="492.00,513.60 491.65,511.15 490.60,509.40 488.85,508.35 486.40,508.00"/>
    </edge>
    <edge id=":I22_1" function="internal">
        <lane id=":I22_1_0" index="0" speed="13.89" length="27.20" shape="492.00,513.60 492.00,486.40"/>
        <lane id=":I22_1_1" index="1" speed="13.89" length="27.20" shape="495.20,513.60 495.20,486.40"/>
    </edge>
    <edge id=":I22_3" function="internal">
        <lane id=":I22_3_0" index="0" speed="10.36" length="12.07" shape="498.40,513.60 499.35,506.95 502.10,502.36"/>
    </edge>
    <edge id=":I22_16" function="internal">
        <lane id=":I22_16_0" index="0" speed="10.36" length="12.44" shape="502.10,502.36 502.20,502.20 506.95,499.35 513.60,498.40"/>
    </edge>
    <edge id=":I22_4" function="internal">
        <lane id=":I22_4_0" index="0" speed="6.51" length="9.03" shape="513.60,508.00 511.15,508.35 509.40,509.40 508.35,511.15 508.00,513.60"/>
    </edge>
    <edge id=":I22_5" function="internal">
        <lane id=":I22_5_0" index="0" speed="13.89" length="27.20" shape="513.60,508.00 486.40,508.00"/>
        <lane id=":I22_5_1" index="1" speed="13.89" length="27.20" shape="513.60,504.80 486.40,504.80"/>
    </edge>
    <edge id=":I22_7" function="internal">
        <lane id=":I22_7_0" index="0" speed="10.36" length="12.07" shape="513.60,501.60 506.95,500.65 502.36,497.90"/>
    </edge>
    <edge id=":I22_17" function="internal">
        <lane id=":I22_17_0" index="0" speed="10.36" length="12.44" shape="502.36,497.90 502.20,497.80 499.35,493.05 498.40,486.40"/>
    </edge>
    <edge id=":I22_8" function="internal">
        <lane id=":I22_8_0" index="0" speed="6.51" length="9.03" shape="508.00,486.40 508.35,488.85 509.40,490.60 511.15,491.65 513.60,492.00"/>
    </edge>
    <edge id=":I22_9" function="internal">
        <lane id=":I22_9_0" index="0" speed="13.89" length="27.20" shape="508.00,486.40 508.00,513.60"/>
        <lane id=":I22_9_1" index="1" speed="13.89" length="27.20" shape="504.80,486.40 504.80,513.60"/>
    </edge>
    <edge id=":I22_11" function="internal">
        <lane id=":I22_11_0" index="0" speed="10.36" length="12.07" shape="501.60,486.40 500.65,493.05 497.90,497.64"/>
    </edge>
    <edge id=":I22_18" function="internal">
        <lane id=":I22_18_0" index="0" speed="10.36" length="12.44" shape="497.90,497.64 497.80,497.80 493.05,500.65 486.40,501.60"/>
    </edge>
    <edge id=":I22_12" function="internal">
        <lane id=":I22_12_0" index="0" speed="6.51" length="9.03" shape="486.40,492.00 488.85,491.65 490.60,490.60 491.65,488.85 492.00,486.40"/>
    </edge>
    <edge id=":I22_13" function="internal">
        <lane id=":I22_13_0" index="0" speed="13.89" length="27.20" shape="486.40,492.00 513.60,492.00"/>
        <lane id=":I22_13_1" index="1" speed="13.89" length="27.20" shape="486.40,495.20 513.60,495.20"/>
    </edge>
    <edge id=":I22_15" function="internal">
        <lane id=":I22_15_0" index="0" speed="10.36" length="12.07" shape="486.40,498.40 493.05,499.35 497.64,502.10"/>
    </edge>
    <edge id=":I22_19" function="internal">
        <lane id=":I22_19_0" index="0" speed="10.36" length="12.44" shape="497.64,502.10 497.80,502.20 500.65,506.95 501.60,513.60"/>
    </edge>
    <edge id=":I23_0" function="internal">
        <lane id=":I23_0_0" index="0" speed="6.51" length="9.03" shape="492.00,1013.60 491.65,1011.15 490.60,1009.40 488.85,1008.35 486.40,1008.00"/>
    </edge>
    <edge id=":I23_1" function="internal">
        <lane id=":I23_1_0" index="0" speed="13.89" length="27.20" shape="492.00,1013.60 492.00,986.40"/>
        <lane id=":I23_1_1" index="1" speed="13.89" length="27.20" shape="495.20,1013.60 495.20,986.40"/>
    </edge>
    <edge id=":I23_3" function="internal">
        <lane id=":I23_3_0" index="0" speed="10.36" length="12.07" shape="498.40,1013.60 499.35,1006.95 502.10,1002.36"/>
    </edge>
    <edge id=":I23_16" function="internal">
        <lane id=":I23_16_0" index="0" speed="10.36" length="12.44" shape="502.10,1002.36 502.20,1002.20 506.95,999.35 513.60,998.40"/>
    </edge>
    <edge id=":I23_4" function="internal">
        <lane id=":I23_4_0" index="0" speed="6.51" length="9.03" shape="513.60,1008.00 511.15,1008.35 509.40,1009.40 508.35,1011.15 508.00,1013.60"/>
    </edge>
    <edge id=":I23_5" function="internal">
        <lane id=":I23_5_0" index="0" speed="13.89" length="27.20" shape="513.60,1008.00 486.40,1008.00"/>
        <lane id=":I23_5_1" index="1" speed="13.89" length="27.20" shape="513.60,1004.80 486.40,1004.80"/>
    </edge>
    <edge id=":I23_7" function="internal">
        <lane id=":I23_7_0" index="0" speed="10.36" length="12.07" shape="513.60,1001.60 506.95,1000.65 502.36,997.90"/>
    </edge>
    <edge id=":I23_17" function="internal">
        <lane id=":I23_17_0" index="0" speed="10.36" length="12.44" shape="502.36,997.90 502.20,997.80 499.35,993.05 498.40,986.40"/>
    </edge>
    <edge id=":I23_8" function="internal">
        <lane id=":I23_8_0" index="0" speed="6.51" length="9.03" shape="508.00,986.40 508.35,988.85 509.40,990.60 511.15,991.65 513.60,992.00"/>
    </edge>
    <edge id=":I23_9" function="internal">
        <lane id=":I23_9_0" index="0" speed="13.89" length="27.20" shape="508.00,986.40 508.00,1013.60"/>
        <lane id=":I23_9_1" index="1" speed="13.89" length="27.20" shape="504.80,986.40 504.80,1013.60"/>
    </edge>
    <edge id=":I23_11" function="internal">
        <lane id=":I23_11_0" index="0" speed="10.36" length="12.07" shape="501.60,986.40 500.65,993.05 497.90,997.64"/>
    </edge>
    <edge id=":I23_18" function="internal">
        <lane id=":I23_18_0" index="0" speed="10.36" length="12.44" shape="497.90,997.64 497.80,997.80 493.05,1000.65 486.40,1001.60"/>
    </edge>
    <edge id=":I23_12" function="internal">
        <lane id=":I23_12_0" index="0" speed="6.51" length="9.03" shape="486.40,992.00 488.85,991.65 490.60,990.60 491.65,988.85 492.00,986.40"/>
    </edge>
    <edge id=":I23_13" function="internal">
        <lane id=":I23_13_0" index="0" speed="13.89" length="27.20" shape="486.40,992.00 513.60,992.00"/>
        <lane id=":I23_13_1" index="1" speed="13.89" length="27.20" shape="486.40,995.20 513.60,995.20"/>
    </edge>
    <edge id=":I23_15" function="internal">
        <lane id=":I23_15_0" index="0" speed="10.36" length="12.07" shape="486.40,998.40 493.05,999.35 497.64,1002.10"/>
    </edge>
    <edge id=":I23_19" function="internal">
        <lane id=":I23_19_0" index="0" speed="10.36" length="12.44" shape="497.64,1002.10 497.80,1002.20 500.65,1006.95 501.60,1013.60"/>
    </edge>
    <edge id=":I24_0" function="internal">
        <lane id=":I24_0_0" index="0" speed="6.51" length="9.03" shape="492.00,1513.60 491.65,1511.15 490.60,1509.40 488.85,1508.35 486.40,1508.00"/>
    </edge>
    <edge id=":I24_1" function="internal">
        <lane id=":I24_1_0" index="0" speed="13.89" length="27.20" shape="492.00,1513.60 492.00,1486.40"/>
        <lane id=":I24_1_1" index="1" speed="13.89" length="27.20" shape="495.20,1513.60 495.20,1486.40"/>
    </edge>
    <edge id=":I24_3" function="internal">
        <lane id=":I24_3_0" index="0" speed="10.36" length="12.07" shape="498.40,1513.60 499.35,1506.95 502.10,1502.36"/>
    </edge>
    <edge id=":I24_16" function="internal">
        <lane id=":I24_16_0" index="0" speed="10.36" length="12.44" shape="502.10,1502.36 502.20,1502.20 506.95,1499.35 513.60,1498.40"/>
    </edge>
    <edge id=":I24_4" function="internal">
        <lane id=":I24_4_0" index="0" speed="6.51" length="9.03" shape="513.60,1508.00 511.15,1508.35 509.40,1509.40 508.35,1511.15 508.00,1513.60"/>
    </edge>
    <edge id=":I24_5" function="internal">
        <lane id=":I24_5_0" index="0" speed="13.89" length="27.20" shape="513.60,1508.00 486.40,1508.00"/>
        <lane id=":I24_5_1" index="1" speed="13.89" length="27.20" shape="513.60,1504.80 486.40,1504.80"/>
    </edge>
    <edge id=":I24_7" function="internal">
        <lane id=":I24_7_0" index="0" speed="10.36" length="12.07" shape="513.60,1501.60 506.95,1500.65 502.36,1497.90"/>
    </edge>
    <edge id=":I24_17" function="internal">
        <lane id=":I24_17_0" index="0" speed="10.36" length="12.44" shape="502.36,1497.90 502.20,1497.80 499.35,1493.05 498.40,1486.40"/>
    </edge>
    <edge id=":I24_8" function="internal">
        <lane id=":I24_8_0" index="0" speed="6.51" length="9.03" shape="508.00,1486.40 508.35,1488.85 509.40,1490.60 511.15,1491.65 513.60,1492.00"/>
    </edge>
    <edge id=":I24_9" function="internal">
        <lane id=":I24_9_0" index="0" speed="13.89" length="27.20" shape="508.00,1486.40 508.00,1513.60"/>
        <lane id=":I24_9_1" index="1" speed="13.89" length="27.20" shape="504.80,1486.40 504.80,1513.60"/>
    </edge>
    <edge id=":I24_11" function="internal">
        <lane id=":I24_11_0" index="0" speed="10.36" length="12.07" shape="501.60,1486.40 500.65,1493.05 497.90,1497.64"/>
    </edge>
    <edge id=":I24_18" function="internal">
        <lane id=":I24_18_0" index="0" speed="10.36" length="12.44" shape="497.90,1497.64 497.80,1497.80 493.05,1500.65 486.40,1501.60"/>
    </edge>
    <edge id=":I24_12" function="internal">
        <lane id=":I24_12_0" index="0" speed="6.51" length="9.03" shape="486.40,1492.00 488.85,1491.65 490.60,1490.60 491.65,1488.85 492.00,1486.40"/>
    </edge>
    <edge id=":I24_13" function="internal">
        <lane id=":I24_13_0" index="0" speed="13.89" length="27.20" shape="486.40,1492.00 513.60,1492.00"/>
        <lane id=":I24_13_1" index="1" speed="13.89" length="27.20" shape="486.40,1495.20 513.60,1495.20"/>
    </edge>
    <edge id=":I24_15" function="internal">
        <lane id=":I24_15_0" index="0" speed="10.36" length="12.07" shape="486.40,1498.40 493.05,1499.35 497.64,1502.10"/>
    </edge>
    <edge id=":I24_19" function="internal">
        <lane id=":I24_19_0" index="0" speed="10.36" length="12.44" shape="497.64,1502.10 497.80,1502.20 500.65,1506.95 501.60,1513.60"/>
    </edge>
    <edge id=":I32_0" function="internal">
        <lane id=":I32_0_0" index="0" speed="6.51" length="9.03" shape="992.00,513.60 991.65,511.15 990.60,509.40 988.85,508.35 986.40,508.00"/>
    </edge>
    <edge id=":I32_1" function="internal">
        <lane id=":I32_1_0" index="0" speed="13.89" length="27.20" shape="992.00,513.60 992.00,486.40"/>
        <lane id=":I32_1_1" index="1" speed="13.89" length="27.20" shape="995.20,513.60 995.20,486.40"/>
    </edge>
    <edge id=":I32_3" function="internal">
        <lane id=":I32_3_0" index="0" speed="10.36" length="12.07" shape="998.40,513.60 999.35,506.95 1002.10,502.36"/>
    </edge>
    <edge id=":I32_16" function="internal">
        <lane id=":I32_16_0" index="0" speed="10.36" length="12.44" shape="1002.10,502.36 1002.20,502.20 1006.95,499.35 1013.60,498.40"/>
    </edge>
    <edge id=":I32_4" function="internal">
        <lane id=":I32_4_0" index="0" speed="6.51" length="9.03" shape="1013.60,508.00 1011.15,508.35 1009.40,509.40 1008.35,511.15 1008.00,513.60"/>
    </edge>
    <edge id=":I32_5" function="internal">
        <lane id=":I32_5_0" index="0" speed="13.89" length="27.20" shape="1013.60,508.00 986.40,508.00"/>
        <lane id=":I32_5_1" index="1" speed="13.89" length="27.20" shape="1013.60,504.80 986.40,504.80"/>
    </edge>
    <edge id=":I32_7" function="internal">
        <lane id=":I32_7_0" index="0" speed="10.36" length="12.07" shape="1013.60,501.60 1006.95,500.65 1002.36,497.90"/>
    </edge>
    <edge id=":I32_17" function="internal">
        <lane id=":I32_17_0" index="0" speed="10.36" length="12.44" shape="1002.36,497.90 1002.20,497.80 999.35,493.05 998.40,486.40"/>
    </edge>
    <edge id=":I32_8" function="internal">
        <lane id=":I32_8_0" index="0" speed="6.51" length="9.03" shape="1008.00,486.40 1008.35,488.85 1009.40,490.60 1011.15,491.65 1013.60,492.00"/>
    </edge>
    <edge id=":I32_9" function="internal">
        <lane id=":I32_9_0" index="0" speed="13.89" length="27.20" shape="1008.00,486.40 1008.00,513.60"/>
        <lane id=":I32_9_1" index="1" speed="13.89" length="27.20" shape="1004.80,486.40 1004.80,513.60"/>
    </edge>
    <edge id=":I32_11" function="internal">
        <lane id=":I32_11_0" index="0" speed="10.36" length="12.07" shape="1001.60,486.40 1000.65,493.05 997.90,497.64"/>
    </edge>
    <edge id=":I32_18" function="internal">
        <lane id=":I32_18_0" index="0" speed="10.36" length="12.44" shape="997.90,497.64 997.80,497.80 993.05,500.65 986.40,501.60"/>
    </edge>
    <edge id=":I32_12" function="internal">
        <lane id=":I32_12_0" index="0" speed="6.51" length="9.03" shape="986.40,492.00 988.85,491.65 990.60,490.60 991.65,488.85 992.00,486.40"/>
    </edge>
    <edge id=":I32_13" function="internal">
        <lane id=":I32_13_0" index="0" speed="13.89" length="27.20" shape="986.40,492.00 1013.60,492.00"/>
        <lane id=":I32_13_1" index="1" speed="13.89" length="27.20" shape="986.40,495.20 1013.60,495.20"/>
    </edge>
    <edge id=":I32_15" function="internal">
        <lane id=":I32_15_0" index="0" speed="10.36" length="12.07" shape="986.40,498.40 993.05,499.35 997.64,502.10"/>
    </edge>
    <edge id=":I32_19" function="internal">
        <lane id=":I32_19_0" index="0" speed="10.36" length="12.44" shape="997.64,502.10 997.80,502.20 1000.65,506.95 1001.60,513.60"/>
    </edge>
    <edge id=":I33_0" function="internal">
        <lane id=":I33_0_0" index="0" speed="6.51" length="9.03" shape="992.00,1013.60 991.65,1011.15 990.60,1009.40 988.85,1008.35 986.40,1008.00"/>
    </edge>
    <edge id=":I33_1" function="internal">
        <lane id=":I33_1_0" index="0" speed="13.89" length="27.20" shape="992.00,1013.60 992.00,986.40"/>
        <lane id=":I33_1_1" index="1" speed="13.89" length="27.20" shape="995.20,1013.60 995.20,986.40"/>
    </edge>
    <edge id=":I33_3" function="internal">
        <lane id=":I33_3_0" index="0" speed="10.36" length="12.07" shape="998.40,1013.60 999.35,1006.95 1002.10,1002.36"/>
    </edge>
    <edge id=":I33_16" function="internal">
        <lane id=":I33_16_0" index="0" speed="10.36" length="12.44" shape="1002.10,1002.36 1002.20,1002.20 1006.95,999.35 1013.60,998.40"/>
    </edge>
    <edge id=":I33_4" function="internal">
        <lane id=":I33_4_0" index="0" speed="6.51" length="9.03" shape="1013.60,1008.00 1011.15,1008.35 1009.40,1009.40 1008.35,1011.15 1008.00,1013.60"/>
    </edge>
    <edge id=":I33_5" function="internal">
        <lane id=":I33_5_0" index="0" speed="13.89" length="27.20" shape="1013.60,1008.00 986.40,1008.00"/>
        <lane id=":I33_5_1" index="1" speed="13.89" length="27.20" shape="1013.60,1004.80 986.40,1004.80"/>
    </edge>
    <edge id=":I33_7" function="internal">
        <lane id=":I33_7_0" index="0" speed="10.36" length="12.07" shape="1013.60,1001.60 1006.95,1000.65 1002.36,997.90"/>
    </edge>
    <edge id=":I33_17" function="internal">
        <lane id=":I33_17_0" index="0" speed="10.36" length="12.44" shape="1002.36,997.90 1002.20,997.80 999.35,993.05 998.40,986.40"/>
    </edge>
    <edge id=":I33_8" function="internal">
        <lane id=":I33_8_0" index="0" speed="6.51" length="9.03" shape="1008.00,986.40 1008.35,988.85 1009.40,990.60 1011.15,991.65 1013.60,992.00"/>
    </edge>
    <edge id=":I33_9" function="internal">
        <lane id=":I33_9_0" index="0" speed="13.89" length="27.20" shape="1008.00,986.40 1008.00,1013.60"/>
        <lane id=":I33_9_1" index="1" speed="13.89" length="27.20" shape="1004.80,986.40 1004.80,1013.60"/>
    </edge>
    <edge id=":I33_11" function="internal">
        <lane id=":I33_11_0" index="0" speed="10.36" length="12.07" shape="1001.60,986.40 1000.65,993.05 997.90,997.64"/>
    </edge>
    <edge id=":I33_18" function="internal">
        <lane id=":I33_18_0" index="0" speed="10.36" length="12.44" shape="997.90,997.64 997.80,997.80 993.05,1000.65 986.40,1001.60"/>
    </edge>
    <edge id=":I33_12" function="internal">
        <lane id=":I33_12_0" index="0" speed="6.51" length="9.03" shape="986.40,992.00 988.85,991.65 990.60,990.60 991.65,988.85 992.00,986.40"/>
    </edge>
    <edge id=":I33_13" function="internal">
        <lane id=":I33_13_0" index="0" speed="13.89" length="27.20" shape="986.40,992.00 1013.60,992.00"/>
        <lane id=":I33_13_1" index="1" speed="13.89" length="27.20" shape="986.40,995.20 1013.60,995.20"/>
    </edge>
    <edge id=":I33_15" function="internal">
        <lane id=":I33_15_0" index="0" speed="10.36" length="12.07" shape="986.40,998.40 993.05,999.35 997.64,1002.10"/>
    </edge>
    <edge id=":I33_19" function="internal">
        <lane id=":I33_19_0" index="0" speed="10.36" length="12.44" shape="997.64,1002.10 997.80,1002.20 1000.65,1006.95 1001.60,1013.60"/>
    </edge>
    <edge id=":I34_0" function="internal">
        <lane id=":I34_0_0" index="0" speed="6.51" length="9.03" shape="992.00,1513.60 991.65,1511.15 990.60,1509.40 988.85,1508.35 986.40,1508.00"/>
    </edge>
    <edge id=":I34_1" function="internal">
        <lane id=":I34_1_0" index="0" speed="13.89" length="27.20" shape="992.00,1513.60 992.00,1486.40"/>
        <lane id=":I34_1_1" index="1" speed="13.89" length="27.20" shape="995.20,1513.60 995.20,1486.40"/>
    </edge>
    <edge id=":I34_3" function="internal">
        <lane id=":I34_3_0" index="0" speed="10.36" length="12.07" shape="998.40,1513.60 999.35,1506.95 1002.10,1502.36"/>
    </edge>
    <edge id=":I34_16" function="internal">
        <lane id=":I34_16_0" index="0" speed="10.36" length="12.44" shape="1002.10,1502.36 1002.20,1502.20 1006.95,1499.35 1013.60,1498.40"/>
    </edge>
    <edge id=":I34_4" function="internal">
        <lane id=":I34_4_0" index="0" speed="6.51" length="9.03" shape="1013.60,1508.00 1011.15,1508.35 1009.40,1509.40 1008.35,1511.15 1008.00,1513.60"/>
    </edge>
    <edge id=":I34_5" function="internal">
        <lane id=":I34_5_0" index="0" speed="13.89" length="27.20" shape="1013.60,1508.00 986.40,1508.00"/>
        <lane id=":I34_5_1" index="1" speed="13.89" length="27.20" shape="1013.60,1504.80 986.40,1504.80"/>
    </edge>
    <edge id=":I34_7" function="internal">
        <lane id=":I34_7_0" index="0" speed="10.36" length="12.07" shape="1013.60,1501.60 1006.95,1500.65 1002.36,1497.90"/>
    </edge>
    <edge id=":I34_17" function="internal">
        <lane id=":I34_17_0" index="0" speed="10.36" length="12.44" shape="1002.36,1497.90 1002.20,1497.80 999.35,1493.05 998.40,1486.40"/>
    </edge>
    <edge id=":I34_8" function="internal">
        <lane id=":I34_8_0" index="0" speed="6.51" length="9.03" shape="1008.00,1486.40 1008.35,1488.85 1009.40,1490.60 1011.15,1491.65 1013.60,1492.00"/>
    </edge>
    <edge id=":I34_9" function="internal">
        <lane id=":I34_9_0" index="0" speed="13.89" length="27.20" shape="1008.00,1486.40 1008.00,1513.60"/>
        <lane id=":I34_9_1" index="1" speed="13.89" length="27.20" shape="1004.80,1486.40 1004.80,1513.60"/>
    </edge>
    <edge id=":I34_11" function="internal">
        <lane id=":I34_11_0" index="0" speed="10.36" length="12.07" shape="1001.60,1486.40 1000.65,1493.05 997.90,1497.64"/>
    </edge>
    <edge id=":I34_18" function="internal">
        <lane id=":I34_18_0" index="0" speed="10.36" length="12.44" shape="997.90,1497.64 997.80,1497.80 993.05,1500.65 986.40,1501.60"/>
    </edge>
    <edge id=":I34_12" function="internal">
        <lane id=":I34_12_0" index="0" speed="6.51" length="9.03" shape="986.40,1492.00 988.85,1491.65 990.60,1490.60 991.65,1488.85 992.00,1486.40"/>
    </edge>
    <edge id=":I34_13" function="internal">
        <lane id=":I34_13_0" index="0" speed="13.89" length="27.20" shape="986.40,1492.00 1013.60,1492.00"/>
        <lane id=":I34_13_1" index="1" speed="13.89" length="27.20" shape="986.40,1495.20 1013.60,1495.20"/>
    </edge>
    <edge id=":I34_15" function="internal">
        <lane id=":I34_15_0" index="0" speed="10.36" length="12.07" shape="986.40,1498.40 993.05,1499.35 997.64,1502.10"/>
    </edge>
    <edge id=":I34_19" function="internal">
        <lane id=":I34_19_0" index="0" speed="10.36" length="12.44" shape="997.64,1502.10 997.80,1502.20 1000.65,1506.95 1001.60,1513.60"/>
    </edge>
    <edge id=":I42_0" function="internal">
        <lane id=":I42_0_0" index="0" speed="6.51" length="9.03" shape="1492.00,513.60 1491.65,511.15 1490.60,509.40 1488.85,508.35 1486.40,508.00"/>
    </edge>
    <edge id=":I42_1" function="internal">
        <lane id=":I42_1_0" index="0" speed="13.89" length="27.20" shape="1492.00,513.60 1492.00,486.40"/>
        <lane id=":I42_1_1" index="1" speed="13.89" length="27.20" shape="1495.20,513.60 1495.20,486.40"/>
    </edge>
    <edge id=":I42_3" function="internal">
        <lane id=":I42_3_0" index="0" speed="10.36" length="12.07" shape="1498.40,513.60 1499.35,506.95 1502.10,502.36"/>
    </edge>
    <edge id=":I42_16" function="internal">
        <lane id=":I42_16_0" index="0" speed="10.36" length="12.44" shape="1502.10,502.36 1502.20,502.20 1506.95,499.35 1513.60,498.40"/>
    </edge>
    <edge id=":I42_4" function="internal">
        <lane id=":I42_4_0" index="0" speed="6.51" length="9.03" shape="1513.60,508.00 1511.15,508.35 1509.40,509.40 1508.35,511.15 1508.00,513.60"/>
    </edge>
    <edge id=":I42_5" function="internal">
        <lane id=":I42_5_0" index="0" speed="13.89" length="27.20" shape="1513.60,508.00 1486.40,508.00"/>
        <lane id=":I42_5_1" index="1" speed="13.89" length="27.20" shape="1513.60,504.80 1486.40,504.80"/>
    </edge>
    <edge id=":I42_7" function="internal">
        <lane id=":I42_7_0" index="0" speed="10.36" length="12.07" shape="1513.60,501.60 1506.95,500.65 1502.36,497.90"/>
    </edge>
    <edge id=":I42_17" function="internal">
        <lane id=":I42_17_0" index="0" speed="10.36" length="12.44" shape="1502.36,497.90 1502.20,497.80 1499.35,493.05 1498.40,486.40"/>
    </edge>
    <edge id=":I42_8" function="internal">
        <lane id=":I42_8_0" index="0" speed="6.51" length="9.03" shape="1508.00,486.40 1508.35,488.85 1509.40,490.60 1511.15,491.65 1513.60,492.00"/>
    </edge>
    <edge id=":I42_9" function="internal">
        <lane id=":I42_9_0" index="0" speed="13.89" length="27.20" shape="1508.00,486.40 1508.00,513.60"/>
        <lane id=":I42_9_1" index="1" speed="13.89" length="27.20" shape="1504.80,486.40 1504.80,513.60"/>
    </edge>
    <edge id=":I42_11" function="internal">
        <lane id=":I42_11_0" index="0" speed="10.36" length="12.07" shape="1501.60,486.40 1500.65,493.05 1497.90,497.64"/>
    </edge>
    <edge id=":I42_18" function="internal">
        <lane id=":I42_18_0" index="0" speed="10.36" length="12.44" shape="1497.90,497.64 1497.80,497.80 1493.05,500.65 1486.40,501.60"/>
    </edge>
    <edge id=":I42_12" function="internal">
        <lane id=":I42_12_0" index="0" speed="6.51" length="9.03" shape="1486.40,492.00 1488.85,491.65 1490.60,490.60 1491.65,488.85 1492.00,486.40"/>
    </edge>
    <edge id=":I42_13" function="internal">
        <lane id=":I42_13_0" index="0" speed="13.89" length="27.20" shape="1486.40,492.00 1513.60,492.00"/>
        <lane id=":I42_13_1" index="1" speed="13.89" length="27.20" shape="1486.40,495.20 1513.60,495.20"/>
    </edge>
    <edge id=":I42_15" function="internal">
        <lane id=":I42_15_0" index="0" speed="10.36" length="12.07" shape="1486.40,498.40 1493.05,499.35 1497.64,502.10"/>
    </edge>
    <edge id=":I42_19" function="internal">
        <lane id=":I42_19_0" index="0" speed="10.36" length="12.44" shape="1497.64,502.10 1497.80,502.20 1500.65,506.95 1501.60,513.60"/>
    </edge>
    <edge id=":I43_0" function="internal">
        <lane id=":I43_0_0" index="0" speed="6.51" length="9.03" shape="1492.00,1013.60 1491.65,1011.15 1490.60,1009.40 1488.85,1008.35 1486.40,1008.00"/>
    </edge>
    <edge id=":I43_1" function="internal">
        <lane id=":I43_1_0" index="0" speed="13.89" length="27.20" shape="1492.00,1013.60 1492.00,986.40"/>
        <lane id=":I43_1_1" index="1" speed="13.89" length="27.20" shape="1495.20,1013.60 1495.20,986.40"/>
    </edge>
    <edge id=":I43_3" function="internal">
        <lane id=":I43_3_0" index="0" speed="10.36" length="12.07" shape="1498.40,1013.60 1499.35,1006.95 1502.10,1002.36"/>
    </edge>
    <edge id=":I43_16" function="internal">
        <lane id=":I43_16_0" index="0" speed="10.36" length="12.44" shape="1502.10,1002.36 1502.20,1002.20 1506.95,999.35 1513.60,998.40"/>
    </edge>
    <edge id=":I43_4" function="internal">
        <lane id=":I43_4_0" index="0" speed="6.51" length="9.03" shape="1513.60,1008.00 1511.15,1008.35 1509.40,1009.40 1508.35,1011.15 1508.00,1013.60"/>
    </edge>
    <edge id=":I43_5" function="internal">
        <lane id=":I43_5_0" index="0" speed="13.89" length="27.20" shape="1513.60,1008.00 1486.40,1008.00"/>
        <lane id=":I43_5_1" index="1" speed="13.89" length="27.20" shape="1513.60,1004.80 1486.40,1004.80"/>
    </edge>
    <edge id=":I43_7" function="internal">
        <lane id=":I43_7_0" index="0" speed="10.36" length="12.07" shape="1513.60,1001.60 1506.95,1000.65 1502.36,997.90"/>
    </edge>
    <edge id=":I43_17" function="internal">
        <lane id=":I43_17_0" index="0" speed="10.36" length="12.44" shape="1502.36,997.90 1502.20,997.80 1499.35,993.05 1498.40,986.40"/>
    </edge>
    <edge id=":I43_8" function="internal">
        <lane id=":I43_8_0" index="0" speed="6.51" length="9.03" shape="1508.00,986.40 1508.35,988.85 1509.40,990.60 1511.15,991.65 1513.60,992.00"/>
    </edge>
    <edge id=":I43_9" function="internal">
        <lane id=":I43_9_0" index="0" speed="13.89" length="27.20" shape="1508.00,986.40 1508.00,1013.60"/>
        <lane id=":I43_9_1" index="1" speed="13.89" length="27.20" shape="1504.80,986.40 1504.80,1013.60"/>
    </edge>
    <edge id=":I43_11" function="internal">
        <lane id=":I43_11_0" index="0" speed="10.36" length="12.07" shape="1501.60,986.40 1500.65,993.05 1497.90,997.64"/>
    </edge>
    <edge id=":I43_18" function="internal">
        <lane id=":I43_18_0" index="0" speed="10.36" length="12.44" shape="1497.90,997.64 1497.80,997.80 1493.05,1000.65 1486.40,1001.60"/>
    </edge>
    <edge id=":I43_12" function="internal">
        <lane id=":I43_12_0" index="0" speed="6.51" length="9.03" shape="1486.40,992.00 1488.85,991.65 1490.60,990.60 1491.65,988.85 1492.00,986.40"/>
    </edge>
    <edge id=":I43_13" function="internal">
        <lane id=":I43_13_0" index="0" speed="13.89" length="27.20" shape="1486.40,992.00 1513.60,992.00"/>
        <lane id=":I43_13_1" index="1" speed="13.89" length="27.20" shape="1486.40,995.20 1513.60,995.20"/>
    </edge>
    <edge id=":I43_15" function="internal">
        <lane id=":I43_15_0" index="0" speed="10.36" length="12.07" shape="1486.40,998.40 1493.05,999.35 1497.64,1002.10"/>
    </edge>
    <edge id=":I43_19" function="internal">
        <lane id=":I43_19_0" index="0" speed="10.36" length="12.44" shape="1497.64,1002.10 1497.80,1002.20 1500.65,1006.95 1501.60,1013.60"/>
    </edge>
    <edge id=":I44_0" function="internal">
        <lane id=":I44_0_0" index="0" speed="6.51" length="9.03" shape="1492.00,1513.60 1491.65,1511.15 1490.60,1509.40 1488.85,1508.35 1486.40,1508.00"/>
    </edge>
    <edge id=":I44_1" function="internal">
        <lane id=":I44_1_0" index="0" speed="13.89" length="27.20" shape="1492.00,1513.60 1492.00,1486.40"/>
        <lane id=":I44_1_1" index="1" speed="13.89" length="27.20" shape="1495.20,1513.60 1495.20,1486.40"/>
    </edge>
    <edge id=":I44_3" function="internal">
        <lane id=":I44_3_0" index="0" speed="10.36" length="12.07" shape="1498.40,1513.60 1499.35,1506.95 1502.10,1502.36"/>
    </edge>
    <edge id=":I44_16" function="internal">
        <lane id=":I44_16_0" index="0" speed="10.36" length="12.44" shape="1502.10,1502.36 1502.20,1502.20 1506.95,1499.35 1513.60,1498.40"/>
    </edge>
    <edge id=":I44_4" function="internal">
        <lane id=":I44_4_0" index="0" speed="6.51" length="9.03" shape="1513.60,1508.00 1511.15,1508.35 1509.40,1509.40 1508.35,1511.15 1508.00,1513.60"/>
    </edge>
    <edge id=":I44_5" function="internal">
        <lane id=":I44_5_0" index="0" speed="13.89" length="27.20" shape="1513.60,1508.00 1486.40,1508.00"/>
        <lane id=":I44_5_1" index="1" speed="13.89" length="27.20" shape="1513.60,1504.80 1486.40,1504.80"/>
    </edge>
    <edge id=":I44_7" function="internal">