<?xml version="1.0" encoding="UTF-8"?>

<additional xmlns:xsi="http://www.w3.org/2001/XMLSchema-instance" xsi:noNamespaceSchemaLocation="http://sumo.dlr.de/xsd/additional_file.xsd">
	<edgeData id="EdgeMeasurements_upper" file="../../measurements/GridBufferFull1/EdgeMeasurements.xml" freq="100.00" excludeEmpty="True" />
	<edgeData id="EdgeMeasurements_lower" file="../../measurements/GridBufferFull1/EdgeMeasurements_lower.xml" freq="5.00" excludeEmpty="True" />
	<inductionLoop id="1_0_in" lane="1_0" pos="1.00" period="50.00" file="../../measurements/GridBufferFull1/DetectorMeasurements.xml"/>
	<inductionLoop id="1_0_out" lane="1_0" pos="472.20" period="50.00" file="../../measurements/GridBufferFull1/DetectorMeasurements.xml"/>
	<inductionLoop id="1_1_in" lane="1_1" pos="1.00" period="50.00" file="../../measurements/GridBufferFull1/DetectorMeasurements.xml"/>
	<inductionLoop id="1_1_out" lane="1_1" pos="472.20" period="50.00" file="../../measurements/GridBufferFull1/DetectorMeasurements.xml"/>
	<inductionLoop id="1_2_in" lane="1_2" pos="1.00" period="50.00" file="../../measurements/GridBufferFull1/DetectorMeasurements.xml"/>
	<inductionLoop id="1_2_out" lane="1_2" pos="472.20" period="50.00" file="../../measurements/GridBufferFull1/DetectorMeasurements.xml"/>
	<inductionLoop id="2_0_in" lane="2_0" pos="1.00" period="50.00" file="../../measurements/GridBufferFull1/DetectorMeasurements.xml"/>
	<inductionLoop id="2_0_out" lane="2_0" pos="472.20" period="50.00" file="../../measurements/GridBufferFull1/DetectorMeasurements.xml"/>
	<inductionLoop id="2_1_in" lane="2_1" pos="1.00" period="50.00" file="../../measurements/GridBufferFull1/DetectorMeasurements.xml"/>
	<inductionLoop id="2_1_out" lane="2_1" pos="472.20" period="50.00" file="../../measurements/GridBufferFull1/DetectorMeasurements.xml"/>
	<inductionLoop id="2_2_in" lane="2_2" pos="1.00" period="50.00" file="../../measurements/GridBufferFull1/DetectorMeasurements.xml"/>
	<inductionLoop id="2_2_out" lane="2_2" pos="472.20" period="50.00" file="../../measurements/GridBufferFull1/DetectorMeasurements.xml"/>
	<inductionLoop id="3_0_in" lane="3_0" pos="1.00" period="50.00" file="../../measurements/GridBufferFull1/DetectorMeasurements.xml"/>
	<inductionLoop id="3_0_out" lane="3_0" pos="472.20" period="50.00" file="../../measurements/GridBufferFull1/DetectorMeasurements.xml"/>
	<inductionLoop id="3_1_in" lane="3_1" pos="1.00" period="50.00" file="../../measurements/GridBufferFull1/DetectorMeasurements.xml"/>
	<inductionLoop id="3_1_out" lane="3_1" pos="472.20" period="50.00" file="../../measurements/GridBufferFull1/DetectorMeasurements.xml"/>
	<inductionLoop id="3_2_in" lane="3_2" pos="1.00" period="50.00" file="../../measurements/GridBufferFull1/DetectorMeasurements.xml"/>
	<inductionLoop id="3_2_out" lane="3_2" pos="472.20" period="50.00" file="../../measurements/GridBufferFull1/DetectorMeasurements.xml"/>
	<inductionLoop id="4_0_in" lane="4_0" pos="1.00" period="50.00" file="../../measurements/GridBufferFull1/DetectorMeasurements.xml"/>
	<inductionLoop id="4_0_out" lane="4_0" pos="472.20" period="50.00" file="../../measurements/GridBufferFull1/DetectorMeasurements.xml"/>
	<inductionLoop id="4_1_in" lane="4_1" pos="1.00" period="50.00" file="../../measurements/GridBufferFull1/DetectorMeasurements.xml"/>
	<inductionLoop id="4_1_out" lane="4_1" pos="472.20" period="50.00" file="../../measurements/GridBufferFull1/DetectorMeasurements.xml"/>
	<inductionLoop id="4_2_in" lane="4_2" pos="1.00" period="50.00" file="../../measurements/GridBufferFull1/DetectorMeasurements.xml"/>
	<inductionLoop id="4_2_out" lane="4_2" pos="472.20" period="50.00" file="../../measurements/GridBufferFull1/DetectorMeasurements.xml"/>
	<inductionLoop id="5_0_in" lane="5_0" pos="1.00" period="50.00" file="../../measurements/GridBufferFull1/DetectorMeasurements.xml"/>
	<inductionLoop id="5_0_out" lane="5_0" pos="472.20" period="50.00" file="../../measurements/GridBufferFull1/DetectorMeasurements.xml"/>
	<inductionLoop id="5_1_in" lane="5_1" pos="1.00" period="50.00" file="../../measurements/GridBufferFull1/DetectorMeasurements.xml"/>
	<inductionLoop id="5_1_out" lane="5_1" pos="472.20" period="50.00" file="../../measurements/GridBufferFull1/DetectorMeasurements.xml"/>
	<inductionLoop id="5_2_in" lane="5_2" pos="1.00" period="50.00" file="../../measurements/GridBufferFull1/DetectorMeasurements.xml"/>
	<inductionLoop id="5_2_out" lane="5_2" pos="472.20" period="50.00" file="../../measurements/GridBufferFull1/DetectorMeasurements.xml"/>
	<inductionLoop id="6_0_in" lane="6_0" pos="1.00" period="50.00" file="../../measurements/GridBufferFull1/DetectorMeasurements.xml"/>
	<inductionLoop id="6_0_out" lane="6_0" pos="472.20" period="50.00" file="../../measurements/GridBufferFull1/DetectorMeasurements.xml"/>
	<inductionLoop id="6_1_in" lane="6_1" pos="1.00" period="50.00" file="../../measurements/GridBufferFull1/DetectorMeasurements.xml"/>
	<inductionLoop id="6_1_out" lane="6_1" pos="472.20" period="50.00" file="../../measurements/GridBufferFull1/DetectorMeasurements.xml"/>
	<inductionLoop id="6_2_in" lane="6_2" pos="1.00" period="50.00" file="../../measurements/GridBufferFull1/DetectorMeasurements.xml"/>
	<inductionLoop id="6_2_out" lane="6_2" pos="472.20" period="50.00" file="../../measurements/GridBufferFull1/DetectorMeasurements.xml"/>
	<inductionLoop id="7_0_in" lane="7_0" pos="1.00" period="50.00" file="../../measurements/GridBufferFull1/DetectorMeasurements.xml"/>
	<inductionLoop id="7_0_out" lane="7_0" pos="472.20" period="50.00" file="../../measurements/GridBufferFull1/DetectorMeasurements.xml"/>
	<inductionLoop id="7_1_in" lane="7_1" pos="1.00" period="50.00" file="../../measurements/GridBufferFull1/DetectorMeasurements.xml"/>
	<inductionLoop id="7_1_out" lane="7_1" pos="472.20" period="50.00" file="../../measurements/GridBufferFull1/DetectorMeasurements.xml"/>
	<inductionLoop id="7_2_in" lane="7_2" pos="1.00" period="50.00" file="../../measurements/GridBufferFull1/DetectorMeasurements.xml"/>
	<inductionLoop id="7_2_out" lane="7_2" pos="472.20" period="50.00" file="../../measurements/GridBufferFull1/DetectorMeasurements.xml"/>
	<inductionLoop id="8_0_in" lane="8_0" pos="1.00" period="50.00" file="../../measurements/GridBufferFull1/DetectorMeasurements.xml"/>
	<inductionLoop id="8_0_out" lane="8_0" pos="472.20" period="50.00" file="../../measurements/GridBufferFull1/DetectorMeasurements.xml"/>
	<inductionLoop id="8_1_in" lane="8_1" pos="1.00" period="50.00" file="../../measurements/GridBufferFull1/DetectorMeasurements.xml"/>
	<inductionLoop id="8_1_out" lane="8_1" pos="472.20" period="50.00" file="../../measurements/GridBufferFull1/DetectorMeasurements.xml"/>
	<inductionLoop id="8_2_in" lane="8_2" pos="1.00" period="50.00" file="../../measurements/GridBufferFull1/DetectorMeasurements.xml"/>
	<inductionLoop id="8_2_out" lane="8_2" pos="472.20" period="50.00" file="../../measurements/GridBufferFull1/DetectorMeasurements.xml"/>
	<inductionLoop id="11_0_in" lane="11_0" pos="1.00" period="50.00" file="../../measurements/GridBufferFull1/DetectorMeasurements.xml"/>
	<inductionLoop id="11_0_out" lane="11_0" pos="472.20" period="50.00" file="../../measurements/GridBufferFull1/DetectorMeasurements.xml"/>
	<inductionLoop id="11_1_in" lane="11_1" pos="1.00" period="50.00" file="../../measurements/GridBufferFull1/DetectorMeasurements.xml"/>
	<inductionLoop id="11_1_out" lane="11_1" pos="472.20" period="50.00" file="../../measurements/GridBufferFull1/DetectorMeasurements.xml"/>
	<inductionLoop id="11_2_in" lane="11_2" pos="1.00" period="50.00" file="../../measurements/GridBufferFull1/DetectorMeasurements.xml"/>
	<inductionLoop id="11_2_out" lane="11_2" pos="472.20" period="50.00" file="../../measurements/GridBufferFull1/DetectorMeasurements.xml"/>
	<inductionLoop id="12_0_in" lane="12_0" pos="1.00" period="50.00" file="../../measurements/GridBufferFull1/DetectorMeasurements.xml"/>
	<inductionLoop id="12_0_out" lane="12_0" pos="472.20" period="50.00" file="../../measurements/GridBufferFull1/DetectorMeasurements.xml"/>
	<inductionLoop id="12_1_in" lane="12_1" pos="1.00" period="50.00" file="../../measurements/GridBufferFull1/DetectorMeasurements.xml"/>
	<inductionLoop id="12_1_out" lane="12_1" pos="472.20" period="50.00" file="../../measurements/GridBufferFull1/DetectorMeasurements.xml"/>
	<inductionLoop id="12_2_in" lane="12_2" pos="1.00" period="50.00" file="../../measurements/GridBufferFull1/DetectorMeasurements.xml"/>
	<inductionLoop id="12_2_out" lane="12_2" pos="472.20" period="50.00" file="../../measurements/GridBufferFull1/DetectorMeasurements.xml"/>
	<inductionLoop id="13_0_in" lane="13_0" pos="1.00" period="50.00" file="../../measurements/GridBufferFull1/DetectorMeasurements.xml"/>
	<inductionLoop id="13_0_out" lane="13_0" pos="472.20" period="50.00" file="../../measurements/GridBufferFull1/DetectorMeasurements.xml"/>
	<inductionLoop id="13_1_in" lane="13_1" pos="1.00" period="50.00" file="../../measurements/GridBufferFull1/DetectorMeasurements.xml"/>
	<inductionLoop id="13_1_out" lane="13_1" pos="472.20" period="50.00" file="../../measurements/GridBufferFull1/DetectorMeasurements.xml"/>
	<inductionLoop id="13_2_in" lane="13_2" pos="1.00" period="50.00" file="../../measurements/GridBufferFull1/DetectorMeasurements.xml"/>
	<inductionLoop id="13_2_out" lane="13_2" pos="472.20" period="50.00" file="../../measurements/GridBufferFull1/DetectorMeasurements.xml"/>
	<inductionLoop id="14_0_in" lane="14_0" pos="1.00" period="50.00" file="../../measurements/GridBufferFull1/DetectorMeasurements.xml"/>
	<inductionLoop id="14_0_out" lane="14_0" pos="472.20" period="50.00" file="../../measurements/GridBufferFull1/DetectorMeasurements.xml"/>
	<inductionLoop id="14_1_in" lane="14_1" pos="1.00" period="50.00" file="../../measurements/GridBufferFull1/DetectorMeasurements.xml"/>
	<inductionLoop id="14_1_out" lane="14_1" pos="472.20" period="50.00" file="../../measurements/GridBufferFull1/DetectorMeasurements.xml"/>
	<inductionLoop id="14_2_in" lane="14_2" pos="1.00" period="50.00" file="../../measurements/GridBufferFull1/DetectorMeasurements.xml"/>
	<inductionLoop id="14_2_out" lane="14_2" pos="472.20" period="50.00" file="../../measurements/GridBufferFull1/DetectorMeasurements.xml"/>
	<inductionLoop id="15_0_in" lane="15_0" pos="1.00" period="50.00" file="../../measurements/GridBufferFull1/DetectorMeasurements.xml"/>
	<inductionLoop id="15_0_out" lane="15_0" pos="472.20" period="50.00" file="../../measurements/GridBufferFull1/DetectorMeasurements.xml"/>
	<inductionLoop id="15_1_in" lane="15_1" pos="1.00" period="50.00" file="../../measurements/GridBufferFull1/DetectorMeasurements.xml"/>
	<inductionLoop id="15_1_out" lane="15_1" pos="472.20" period="50.00" file="../../measurements/GridBufferFull1/DetectorMeasurements.xml"/>
	<inductionLoop id="15_2_in" lane="15_2" pos="1.00" period="50.00" file="../../measurements/GridBufferFull1/DetectorMeasurements.xml"/>
	<inductionLoop id="15_2_out" lane="15_2" pos="472.20" period="50.00" file="../../measurements/GridBufferFull1/DetectorMeasurements.xml"/>
	<inductionLoop id="16_0_in" lane="16_0" pos="1.00" period="50.00" file="../../measurements/GridBufferFull1/DetectorMeasurements.xml"/>
	<inductionLoop id="16_0_out" lane="16_0" pos="472.20" period="50.00" file="../../measurements/GridBufferFull1/DetectorMeasurements.xml"/>
	<inductionLoop id="16_1_in" lane="16_1" pos="1.00" period="50.00" file="../../measurements/GridBufferFull1/DetectorMeasurements.xml"/>
	<inductionLoop id="16_1_out" lane="16_1" pos="472.20" period="50.00" file="../../measurements/GridBufferFull1/DetectorMeasurements.xml"/>
	<inductionLoop id="16_2_in" lane="16_2" pos="1.00" period="50.00" file="../../measurements/GridBufferFull1/DetectorMeasurements.xml"/>
	<inductionLoop id="16_2_out" lane="16_2" pos="472.20" period="50.00" file="../../measurements/GridBufferFull1/DetectorMeasurements.xml"/>
	<inductionLoop id="17_0_in" lane="17_0" pos="1.00" period="50.00" file="../../measurements/GridBufferFull1/DetectorMeasurements.xml"/>
	<inductionLoop id="17_0_out" lane="17_0" pos="472.20" period="50.00" file="../../measurements/GridBufferFull1/DetectorMeasurements.xml"/>
	<inductionLoop id="17_1_in" lane="17_1" pos="1.00" period="50.00" file="../../measurements/GridBufferFull1/DetectorMeasurements.xml"/>
	<inductionLoop id="17_1_out" lane="17_1" pos="472.20" period="50.00" file="../../measurements/GridBufferFull1/DetectorMeasurements.xml"/>
	<inductionLoop id="17_2_in" lane="17_2" pos="1.00" period="50.00" file="../../measurements/GridBufferFull1/DetectorMeasurements.xml"/>
	<inductionLoop id="17_2_out" lane="17_2" pos="472.20" period="50.00" file="../../measurements/GridBufferFull1/DetectorMeasurements.xml"/>
	<inductionLoop id="18_0_in" lane="18_0" pos="1.00" period="50.00" file="../../measurements/GridBufferFull1/DetectorMeasurements.xml"/>
	<inductionLoop id="18_0_out" lane="18_0" pos="472.20" period="50.00" file="../../measurements/GridBufferFull1/DetectorMeasurements.xml"/>
	<inductionLoop id="18_1_in" lane="18_1" pos="1.00" period="50.00" file="../../measurements/GridBufferFull1/DetectorMeasurements.xml"/>
	<inductionLoop id="18_1_out" lane="18_1" pos="472.20" period="50.00" file="../../measurements/GridBufferFull1/DetectorMeasurements.xml"/>
	<inductionLoop id="18_2_in" lane="18_2" pos="1.00" period="50.00" file="../../measurements/GridBufferFull1/DetectorMeasurements.xml"/>
	<inductionLoop id="18_2_out" lane="18_2" pos="472.20" period="50.00" file="../../measurements/GridBufferFull1/DetectorMeasurements.xml"/>
	<inductionLoop id="21_0_in" lane="21_0" pos="1.00" period="50.00" file="../../measurements/GridBufferFull1/DetectorMeasurements.xml"/>
	<inductionLoop id="21_0_out" lane="21_0" pos="472.20" period="50.00" file="../../measurements/GridBufferFull1/DetectorMeasurements.xml"/>
	<inductionLoop id="21_1_in" lane="21_1" pos="1.00" period="50.00" file="../../measurements/GridBufferFull1/DetectorMeasurements.xml"/>
	<inductionLoop id="21_1_out" lane="21_1" pos="472.20" period="50.00" file="../../measurements/GridBufferFull1/DetectorMeasurements.xml"/>
	<inductionLoop id="21_2_in" lane="21_2" pos="1.00" period="50.00" file="../../measurements/GridBufferFull1/DetectorMeasurements.xml"/>
	<inductionLoop id="21_2_out" lane="21_2" pos="472.20" period="50.00" file="../../measurements/GridBufferFull1/DetectorMeasurements.xml"/>
	<inductionLoop id="22_0_in" lane="22_0" pos="1.00" period="50.00" file="../../measurements/GridBufferFull1/DetectorMeasurements.xml"/>
	<inductionLoop id="22_0_out" lane="22_0" pos="472.20" period="50.00" file="../../measurements/GridBufferFull1/DetectorMeasurements.xml"/>
	<inductionLoop id="22_1_in" lane="22_1" pos="1.00" period="50.00" file="../../measurements/GridBufferFull1/DetectorMeasurements.xml"/>
	<inductionLoop id="22_1_out" lane="22_1" pos="472.20" period="50.00" file="../../measurements/GridBufferFull1/DetectorMeasurements.xml"/>
	<inductionLoop id="22_2_in" lane="22_2" pos="1.00" period="50.00" file="../../measurements/GridBufferFull1/DetectorMeasurements.xml"/>
	<inductionLoop id="22_2_out" lane="22_2" pos="472.20" period="50.00" file="../../measurements/GridBufferFull1/DetectorMeasurements.xml"/>
	<inductionLoop id="23_0_in" lane="23_0" pos="1.00" period="50.00" file="../../measurements/GridBufferFull1/DetectorMeasurements.xml"/>
	<inductionLoop id="23_0_out" lane="23_0" pos="472.20" period="50.00" file="../../measurements/GridBufferFull1/DetectorMeasurements.xml"/>
	<inductionLoop id="23_1_in" lane="23_1" pos="1.00" period="50.00" file="../../measurements/GridBufferFull1/DetectorMeasurements.xml"/>
	<inductionLoop id="23_1_out" lane="23_1" pos="472.20" period="50.00" file="../../measurements/GridBufferFull1/DetectorMeasurements.xml"/>
	<inductionLoop id="23_2_in" lane="23_2" pos="1.00" period="50.00" file="../../measurements/GridBufferFull1/DetectorMeasurements.xml"/>
	<inductionLoop id="23_2_out" lane="23_2" pos="472.20" period="50.00" file="../../measurements/GridBufferFull1/DetectorMeasurements.xml"/>
	<inductionLoop id="24_0_in" lane="24_0" pos="1.00" period="50.00" file="../../measurements/GridBufferFull1/DetectorMeasurements.xml"/>
	<inductionLoop id="24_0_out" lane="24_0" pos="472.20" period="50.00" file="../../measurements/GridBufferFull1/DetectorMeasurements.xml"/>
	<inductionLoop id="24_1_in" lane="24_1" pos="1.00" period="50.00" file="../../measurements/GridBufferFull1/DetectorMeasurements.xml"/>
	<inductionLoop id="24_1_out" lane="24_1" pos="472.20" period="50.00" file="../../measurements/GridBufferFull1/DetectorMeasurements.xml"/>
	<inductionLoop id="24_2_in" lane="24_2" pos="1.00" period="50.00" file="../../measurements/GridBufferFull1/DetectorMeasurements.xml"/>
	<inductionLoop id="24_2_out" lane="24_2" pos="472.20" period="50.00" file="../../measurements/GridBufferFull1/DetectorMeasurements.xml"/>
	<inductionLoop id="25_0_in" lane="25_0" pos="1.00" period="50.00" file="../../measurements/GridBufferFull1/DetectorMeasurements.xml"/>
	<inductionLoop id="25_0_out" lane="25_0" pos="472.20" period="50.00" file="../../measurements/GridBufferFull1/DetectorMeasurements.xml"/>
	<inductionLoop id="25_1_in" lane="25_1" pos="1.00" period="50.00" file="../../measurements/GridBufferFull1/DetectorMeasurements.xml"/>
	<inductionLoop id="25_1_out" lane="25_1" pos="472.20" period="50.00" file="../../measurements/GridBufferFull1/DetectorMeasurements.xml"/>
	<inductionLoop id="25_2_in" lane="25_2" pos="1.00" period="50.00" file="../../measurements/GridBufferFull1/DetectorMeasurements.xml"/>
	<inductionLoop id="25_2_out" lane="25_2" pos="472.20" period="50.00" file="../../measurements/GridBufferFull1/DetectorMeasurements.xml"/>
	<inductionLoop id="26_0_in" lane="26_0" pos="1.00" period="50.00" file="../../measurements/GridBufferFull1/DetectorMeasurements.xml"/>
	<inductionLoop id="26_0_out" lane="26_0" pos="472.20" period="50.00" file="../../measurements/GridBufferFull1/DetectorMeasurements.xml"/>
	<inductionLoop id="26_1_in" lane="26_1" pos="1.00" period="50.00" file="../../measurements/GridBufferFull1/DetectorMeasurements.xml"/>
	<inductionLoop id="26_1_out" lane="26_1" pos="472.20" period="50.00" file="../../measurements/GridBufferFull1/DetectorMeasurements.xml"/>
	<inductionLoop id="26_2_in" lane="26_2" pos="1.00" period="50.00" file="../../measurements/GridBufferFull1/DetectorMeasurements.xml"/>
	<inductionLoop id="26_2_out" lane="26_2" pos="472.20" period="50.00" file="../../measurements/GridBufferFull1/DetectorMeasurements.xml"/>
	<inductionLoop id="27_0_in" lane="27_0" pos="1.00" period="50.00" file="../../measurements/GridBufferFull1/DetectorMeasurements.xml"/>
	<inductionLoop id="27_0_out" lane="27_0" pos="472.20" period="50.00" file="../../measurements/GridBufferFull1/DetectorMeasurements.xml"/>
	<inductionLoop id="27_1_in" lane="27_1" pos="1.00" period="50.00" file="../../measurements/GridBufferFull1/DetectorMeasurements.xml"/>
	<inductionLoop id="27_1_out" lane="27_1" pos="472.20" period="50.00" file="../../measurements/GridBufferFull1/DetectorMeasurements.xml"/>
	<inductionLoop id="27_2_in" lane="27_2" pos="1.00" period="50.00" file="../../measurements/GridBufferFull1/DetectorMeasurements.xml"/>
	<inductionLoop id="27_2_out" lane="27_2" pos="472.20" period="50.00" file="../../measurements/GridBufferFull1/DetectorMeasurements.xml"/>
	<inductionLoop id="28_0_in" lane="28_0" pos="1.00" period="50.00" file="../../measurements/GridBufferFull1/DetectorMeasurements.xml"/>
	<inductionLoop id="28_0_out" lane="28_0" pos="472.20" period="50.00" file="../../measurements/GridBufferFull1/DetectorMeasurements.xml"/>
	<inductionLoop id="28_1_in" lane="28_1" pos="1.00" period="50.00" file="../../measurements/GridBufferFull1/DetectorMeasurements.xml"/>
	<inductionLoop id="28_1_out" lane="28_1" pos="472.20" period="50.00" file="../../measurements/GridBufferFull1/DetectorMeasurements.xml"/>
	<inductionLoop id="28_2_in" lane="28_2" pos="1.00" period="50.00" file="../../measurements/GridBufferFull1/DetectorMeasurements.xml"/>
	<inductionLoop id="28_2_out" lane="28_2" pos="472.20" period="50.00" file="../../measurements/GridBufferFull1/DetectorMeasurements.xml"/>
	<inductionLoop id="31_0_in" lane="31_0" pos="1.00" period="50.00" file="../../measurements/GridBufferFull1/DetectorMeasurements.xml"/>
	<inductionLoop id="31_0_out" lane="31_0" pos="472.20" period="50.00" file="../../measurements/GridBufferFull1/DetectorMeasurements.xml"/>
	<inductionLoop id="31_1_in" lane="31_1" pos="1.00" period="50.00" file="../../measurements/GridBufferFull1/DetectorMeasurements.xml"/>
	<inductionLoop id="31_1_out" lane="31_1" pos="472.20" period="50.00" file="../../measurements/GridBufferFull1/DetectorMeasurements.xml"/>
	<inductionLoop id="31_2_in" lane="31_2" pos="1.00" period="50.00" file="../../measurements/GridBufferFull1/DetectorMeasurements.xml"/>
	<inductionLoop id="31_2_out" lane="31_2" pos="472.20" period="50.00" file="../../measurements/GridBufferFull1/DetectorMeasurements.xml"/>
	<inductionLoop id="32_0_in" lane="32_0" pos="1.00" period="50.00" file="../../measurements/GridBufferFull1/DetectorMeasurements.xml"/>
	<inductionLoop id="32_0_out" lane="32_0" pos="472.20" period="50.00" file="../../measurements/GridBufferFull1/DetectorMeasurements.xml"/>
	<inductionLoop id="32_1_in" lane="32_1" pos="1.00" period="50.00" file="../../measurements/GridBufferFull1/DetectorMeasurements.xml"/>
	<inductionLoop id="32_1_out" lane="32_1" pos="472.20" period="50.00" file="../../measurements/GridBufferFull1/DetectorMeasurements.xml"/>
	<inductionLoop id="32_2_in" lane="32_2" pos="1.00" period="50.00" file="../../measurements/GridBufferFull1/DetectorMeasurements.xml"/>
	<inductionLoop id="32_2_out" lane="32_2" pos="472.20" period="50.00" file="../../measurements/GridBufferFull1/DetectorMeasurements.xml"/>
	<inductionLoop id="33_0_in" lane="33_0" pos="1.00" period="50.00" file="../../measurements/GridBufferFull1/DetectorMeasurements.xml"/>
	<inductionLoop id="33_0_out" lane="33_0" pos="472.20" period="50.00" file="../../measurements/GridBufferFull1/DetectorMeasurements.xml"/>
	<inductionLoop id="33_1_in" lane="33_1" pos="1.00" period="50.00" file="../../measurements/GridBufferFull1/DetectorMeasurements.xml"/>
	<inductionLoop id="33_1_out" lane="33_1" pos="472.20" period="50.00" file="../../measurements/GridBufferFull1/DetectorMeasurements.xml"/>
	<inductionLoop id="33_2_in" lane="33_2" pos="1.00" period="50.00" file="../../measurements/GridBufferFull1/DetectorMeasurements.xml"/>
	<inductionLoop id="33_2_out" lane="33_2" pos="472.20" period="50.00" file="../../measurements/GridBufferFull1/DetectorMeasurements.xml"/>
	<inductionLoop id="34_0_in" lane="34_0" pos="1.00" period="50.00" file="../../measurements/GridBufferFull1/DetectorMeasurements.xml"/>
	<inductionLoop id="34_0_out" lane="34_0" pos="472.20" period="50.00" file="../../measurements/GridBufferFull1/DetectorMeasurements.xml"/>
	<inductionLoop id="34_1_in" lane="34_1" pos="1.00" period="50.00" file="../../measurements/GridBufferFull1/DetectorMeasurements.xml"/>
	<inductionLoop id="34_1_out" lane="34_1" pos="472.20" period="50.00" file="../../measurements/GridBufferFull1/DetectorMeasurements.xml"/>
	<inductionLoop id="34_2_in" lane="34_2" pos="1.00" period="50.00" file="../../measurements/GridBufferFull1/DetectorMeasurements.xml"/>
	<inductionLoop id="34_2_out" lane="34_2" pos="472.20" period="50.00" file="../../measurements/GridBufferFull1/DetectorMeasurements.xml"/>
	<inductionLoop id="35_0_in" lane="35_0" pos="1.00" period="50.00" file="../../measurements/GridBufferFull1/DetectorMeasurements.xml"/>
	<inductionLoop id="35_0_out" lane="35_0" pos="472.20" period="50.00" file="../../measurements/GridBufferFull1/DetectorMeasurements.xml"/>
	<inductionLoop id="35_1_in" lane="35_1" pos="1.00" period="50.00" file="../../measurements/GridBufferFull1/DetectorMeasurements.xml"/>
	<inductionLoop id="35_1_out" lane="35_1" pos="472.20" period="50.00" file="../../measurements/GridBufferFull1/DetectorMeasurements.xml"/>
	<inductionLoop id="35_2_in" lane="35_2" pos="1.00" period="50.00" file="../../measurements/GridBufferFull1/DetectorMeasurements.xml"/>
	<inductionLoop id="35_2_out" lane="35_2" pos="472.20" period="50.00" file="../../measurements/GridBufferFull1/DetectorMeasurements.xml"/>
	<inductionLoop id="36_0_in" lane="36_0" pos="1.00" period="50.00" file="../../measurements/GridBufferFull1/DetectorMeasurements.xml"/>
	<inductionLoop id="36_0_out" lane="36_0" pos="472.20" period="50.00" file="../../measurements/GridBufferFull1/DetectorMeasurements.xml"/>
	<inductionLoop id="36_1_in" lane="36_1" pos="1.00" period="50.00" file="../../measurements/GridBufferFull1/DetectorMeasurements.xml"/>
	<inductionLoop id="36_1_out" lane="36_1" pos="472.20" period="50.00" file="../../measurements/GridBufferFull1/DetectorMeasurements.xml"/>
	<inductionLoop id="36_2_in" lane="36_2" pos="1.00" period="50.00" file="../../measurements/GridBufferFull1/DetectorMeasurements.xml"/>
	<inductionLoop id="36_2_out" lane="36_2" pos="472.20" period="50.00" file="../../measurements/GridBufferFull1/DetectorMeasurements.xml"/>
	<inductionLoop id="37_0_in" lane="37_0" pos="1.00" period="50.00" file="../../measurements/GridBufferFull1/DetectorMeasurements.xml"/>
	<inductionLoop id="37_0_out" lane="37_0" pos="472.20" period="50.00" file="../../measurements/GridBufferFull1/DetectorMeasurements.xml"/>
	<inductionLoop id="37_1_in" lane="37_1" pos="1.00" period="50.00" file="../../measurements/GridBufferFull1/DetectorMeasurements.xml"/>
	<inductionLoop id="37_1_out" lane="37_1" pos="472.20" period="50.00" file="../../measurements/GridBufferFull1/DetectorMeasurements.xml"/>
	<inductionLoop id="37_2_in" lane="37_2" pos="1.00" period="50.00" file="../../measurements/GridBufferFull1/DetectorMeasurements.xml"/>
	<inductionLoop id="37_2_out" lane="37_2" pos="472.20" period="50.00" file="../../measurements/GridBufferFull1/DetectorMeasurements.xml"/>
	<inductionLoop id="38_0_in" lane="38_0" pos="1.00" period="50.00" file="../../measurements/GridBufferFull1/DetectorMeasurements.xml"/>
	<inductionLoop id="38_0_out" lane="38_0" pos="472.20" period="50.00" file="../../measurements/GridBufferFull1/DetectorMeasurements.xml"/>
	<inductionLoop id="38_1_in" lane="38_1" pos="1.00" period="50.00" file="../../measurements/GridBufferFull1/DetectorMeasurements.xml"/>
	<inductionLoop id="38_1_out" lane="38_1" pos="472.20" period="50.00" file="../../measurements/GridBufferFull1/DetectorMeasurements.xml"/>
	<inductionLoop id="38_2_in" lane="38_2" pos="1.00" period="50.00" file="../../measurements/GridBufferFull1/DetectorMeasurements.xml"/>
	<inductionLoop id="38_2_out" lane="38_2" pos="472.20" period="50.00" file="../../measurements/GridBufferFull1/DetectorMeasurements.xml"/>
	<inductionLoop id="41_0_in" lane="41_0" pos="1.00" period="50.00" file="../../measurements/GridBufferFull1/DetectorMeasurements.xml"/>
	<inductionLoop id="41_0_out" lane="41_0" pos="472.20" period="50.00" file="../../measurements/GridBufferFull1/DetectorMeasurements.xml"/>
	<inductionLoop id="41_1_in" lane="41_1" pos="1.00" period="50.00" file="../../measurements/GridBufferFull1/DetectorMeasurements.xml"/>
	<inductionLoop id="41_1_out" lane="41_1" pos="472.20" period="50.00" file="../../measurements/GridBufferFull1/DetectorMeasurements.xml"/>
	<inductionLoop id="41_2_in" lane="41_2" pos="1.00" period="50.00" file="../../measurements/GridBufferFull1/DetectorMeasurements.xml"/>
	<inductionLoop id="41_2_out" lane="41_2" pos="472.20" period="50.00" file="../../measurements/GridBufferFull1/DetectorMeasurements.xml"/>
	<inductionLoop id="42_0_in" lane="42_0" pos="1.00" period="50.00" file="../../measurements/GridBufferFull1/DetectorMeasurements.xml"/>
	<inductionLoop id="42_0_out" lane="42_0" pos="472.20" period="50.00" file="../../measurements/GridBufferFull1/DetectorMeasurements.xml"/>
	<inductionLoop id="42_1_in" lane="42_1" pos="1.00" period="50.00" file="../../measurements/GridBufferFull1/DetectorMeasurements.xml"/>
	<inductionLoop id="42_1_out" lane="42_1" pos="472.20" period="50.00" file="../../measurements/GridBufferFull1/DetectorMeasurements.xml"/>
	<inductionLoop id="42_2_in" lane="42_2" pos="1.00" period="50.00" file="../../measurements/GridBufferFull1/DetectorMeasurements.xml"/>
	<inductionLoop id="42_2_out" lane="42_2" pos="472.20" period="50.00" file="../../measurements/GridBufferFull1/DetectorMeasurements.xml"/>
	<inductionLoop id="43_0_in" lane="43_0" pos="1.00" period="50.00" file="../../measurements/GridBufferFull1/DetectorMeasurements.xml"/>
	<inductionLoop id="43_0_out" lane="43_0" pos="472.20" period="50.00" file="../../measurements/GridBufferFull1/DetectorMeasurements.xml"/>
	<inductionLoop id="43_1_in" lane="43_1" pos="1.00" period="50.00" file="../../measurements/GridBufferFull1/DetectorMeasurements.xml"/>
	<inductionLoop id="43_1_out" lane="43_1" pos="472.20" period="50.00" file="../../measurements/GridBufferFull1/DetectorMeasurements.xml"/>
	<inductionLoop id="43_2_in" lane="43_2" pos="1.00" period="50.00" file="../../measurements/GridBufferFull1/DetectorMeasurements.xml"/>
	<inductionLoop id="43_2_out" lane="43_2" pos="472.20" period="50.00" file="../../measurements/GridBufferFull1/DetectorMeasurements.xml"/>
	<inductionLoop id="44_0_in" lane="44_0" pos="1.00" period="50.00" file="../../measurements/GridBufferFull1/DetectorMeasurements.xml"/>
	<inductionLoop id="44_0_out" lane="44_0" pos="472.20" period="50.00" file="../../measurements/GridBufferFull1/DetectorMeasurements.xml"/>
	<inductionLoop id="44_1_in" lane="44_1" pos="1.00" period="50.00" file="../../measurements/GridBufferFull1/DetectorMeasurements.xml"/>
	<inductionLoop id="44_1_out" lane="44_1" pos="472.20" period="50.00" file="../../measurements/GridBufferFull1/DetectorMeasurements.xml"/>
	<inductionLoop id="44_2_in" lane="44_2" pos="1.00" period="50.00" file="../../measurements/GridBufferFull1/DetectorMeasurements.xml"/>