<?xml version="1.0" encoding="UTF-8"?>

<!-- generated on 2025-01-13 12:13:04 by Eclipse SUMO netedit Version 1.18.0
<configuration xmlns:xsi="http://www.w3.org/2001/XMLSchema-instance" xsi:noNamespaceSchemaLocation="http://sumo.dlr.de/xsd/neteditConfiguration.xsd">

    <input>
        <sumo-net-file value="D:\学习资料\研究生\2 个人研究\Signal timing with perimeter control\Codes\network\GridBufferFull\GridBuffer.net.xml"/>
    </input>

    <output>
        <output-file value="D:\学习资料\研究生\2 个人研究\Signal timing with perimeter control\Codes\network\GridBufferFull\GridBuffer.net.xml"/>
    </output>

    <processing>
        <geometry.min-radius.fix.railways value="false"/>
        <geometry.max-grade.fix value="false"/>
        <offset.disable-normalization value="true"/>
        <lefthand value="0"/>
    </processing>

    <junctions>
        <no-turnarounds value="true"/>
        <junctions.corner-detail value="5"/>
        <junctions.limit-turn-speed value="5.50"/>
        <rectangular-lane-cut value="0"/>
    </junctions>

    <pedestrian>
        <walkingareas value="0"/>
    </pedestrian>

</configuration>
-->

<net version="1.16" junctionCornerDetail="5" limitTurnSpeed="5.50" xmlns:xsi="http://www.w3.org/2001/XMLSchema-instance" xsi:noNamespaceSchemaLocation="http://sumo.dlr.de/xsd/net_file.xsd">

    <location netOffset="0.00,0.00" convBoundary="-1000.00,-1000.00,3000.00,3000.00" origBoundary="0.00,0.00,2000.00,2000.00" projParameter="!"/>

    <edge id=":I22_0" function="internal">
        <lane id=":I22_0_0" index="0" speed="6.51" length="9.03" shape="492.00,513.60 491.65,511.15 490.60,509.40 488.85,508.35 486.40,508.00"/>
    </edge>
    <edge id=":I22_1" function="internal">
        <lane id=":I22_1_0" index="0" speed="13.89" length="27.20" shape="492.00,513.60 492.00,486.40"/>
        <lane id=":I22_1_1" index="1" speed="13.89" length="27.20" shape="495.20,513.60 495.20,486.40"/>
        <lane id=":I22_1_2" index="2" speed="13.89" length="27.20" shape="498.40,513.60 498.40,486.40"/>
    </edge>
    <edge id=":I22_4" function="internal">
        <lane id=":I22_4_0" index="0" speed="10.36" length="5.01" shape="498.40,513.60 499.11,508.64"/>
    </edge>
    <edge id=":I22_5" function="internal">
        <lane id=":I22_5_0" index="0" speed="3.65" length="1.44" shape="498.40,513.60 499.20,512.40"/>
    </edge>
    <edge id=":I22_24" function="internal">
        <lane id=":I22_24_0" index="0" speed="10.36" length="19.50" shape="499.11,508.64 499.35,506.95 502.20,502.20 506.95,499.35 513.60,498.40"/>
    </edge>
    <edge id=":I22_25" function="internal">
        <lane id=":I22_25_0" index="0" speed="3.65" length="3.23" shape="499.20,512.40 500.00,512.00 500.80,512.40 501.60,513.60"/>
    </edge>
    <edge id=":I22_6" function="internal">
        <lane id=":I22_6_0" index="0" speed="6.51" length="9.03" shape="513.60,508.00 511.15,508.35 509.40,509.40 508.35,511.15 508.00,513.60"/>
    </edge>
    <edge id=":I22_7" function="internal">
        <lane id=":I22_7_0" index="0" speed="13.89" length="27.20" shape="513.60,508.00 486.40,508.00"/>
        <lane id=":I22_7_1" index="1" speed="13.89" length="27.20" shape="513.60,504.80 486.40,504.80"/>
        <lane id=":I22_7_2" index="2" speed="13.89" length="27.20" shape="513.60,501.60 486.40,501.60"/>
    </edge>
    <edge id=":I22_10" function="internal">
        <lane id=":I22_10_0" index="0" speed="10.36" length="5.01" shape="513.60,501.60 508.64,500.89"/>
    </edge>
    <edge id=":I22_11" function="internal">
        <lane id=":I22_11_0" index="0" speed="3.65" length="1.44" shape="513.60,501.60 512.40,500.80"/>
    </edge>
    <edge id=":I22_26" function="internal">
        <lane id=":I22_26_0" index="0" speed="10.36" length="19.50" shape="508.64,500.89 506.95,500.65 502.20,497.80 499.35,493.05 498.40,486.40"/>
    </edge>
    <edge id=":I22_27" function="internal">
        <lane id=":I22_27_0" index="0" speed="3.65" length="3.23" shape="512.40,500.80 512.00,500.00 512.40,499.20 513.60,498.40"/>
    </edge>
    <edge id=":I22_12" function="internal">
        <lane id=":I22_12_0" index="0" speed="6.51" length="9.03" shape="508.00,486.40 508.35,488.85 509.40,490.60 511.15,491.65 513.60,492.00"/>
    </edge>
    <edge id=":I22_13" function="internal">
        <lane id=":I22_13_0" index="0" speed="13.89" length="27.20" shape="508.00,486.40 508.00,513.60"/>
        <lane id=":I22_13_1" index="1" speed="13.89" length="27.20" shape="504.80,486.40 504.80,513.60"/>
        <lane id=":I22_13_2" index="2" speed="13.89" length="27.20" shape="501.60,486.40 501.60,513.60"/>
    </edge>
    <edge id=":I22_16" function="internal">
        <lane id=":I22_16_0" index="0" speed="10.36" length="5.01" shape="501.60,486.40 500.89,491.36"/>
    </edge>
    <edge id=":I22_17" function="internal">
        <lane id=":I22_17_0" index="0" speed="3.65" length="1.44" shape="501.60,486.40 500.80,487.60"/>
    </edge>
    <edge id=":I22_28" function="internal">
        <lane id=":I22_28_0" index="0" speed="10.36" length="19.50" shape="500.89,491.36 500.65,493.05 497.80,497.80 493.05,500.65 486.40,501.60"/>
    </edge>
    <edge id=":I22_29" function="internal">
        <lane id=":I22_29_0" index="0" speed="3.65" length="3.23" shape="500.80,487.60 500.00,488.00 499.20,487.60 498.40,486.40"/>
    </edge>
    <edge id=":I22_18" function="internal">
        <lane id=":I22_18_0" index="0" speed="6.51" length="9.03" shape="486.40,492.00 488.85,491.65 490.60,490.60 491.65,488.85 492.00,486.40"/>
    </edge>
    <edge id=":I22_19" function="internal">
        <lane id=":I22_19_0" index="0" speed="13.89" length="27.20" shape="486.40,492.00 513.60,492.00"/>
        <lane id=":I22_19_1" index="1" speed="13.89" length="27.20" shape="486.40,495.20 513.60,495.20"/>
        <lane id=":I22_19_2" index="2" speed="13.89" length="27.20" shape="486.40,498.40 513.60,498.40"/>
    </edge>
    <edge id=":I22_22" function="internal">
        <lane id=":I22_22_0" index="0" speed="10.36" length="5.01" shape="486.40,498.40 491.36,499.11"/>
    </edge>
    <edge id=":I22_23" function="internal">
        <lane id=":I22_23_0" index="0" speed="3.65" length="1.44" shape="486.40,498.40 487.60,499.20"/>
    </edge>
    <edge id=":I22_30" function="internal">
        <lane id=":I22_30_0" index="0" speed="10.36" length="19.50" shape="491.36,499.11 493.05,499.35 497.80,502.20 500.65,506.95 501.60,513.60"/>
    </edge>
    <edge id=":I22_31" function="internal">
        <lane id=":I22_31_0" index="0" speed="3.65" length="3.23" shape="487.60,499.20 488.00,500.00 487.60,500.80 486.40,501.60"/>
    </edge>
    <edge id=":I23_0" function="internal">
        <lane id=":I23_0_0" index="0" speed="6.51" length="9.03" shape="492.00,1013.60 491.65,1011.15 490.60,1009.40 488.85,1008.35 486.40,1008.00"/>
    </edge>
    <edge id=":I23_1" function="internal">
        <lane id=":I23_1_0" index="0" speed="13.89" length="27.20" shape="492.00,1013.60 492.00,986.40"/>
        <lane id=":I23_1_1" index="1" speed="13.89" length="27.20" shape="495.20,1013.60 495.20,986.40"/>
        <lane id=":I23_1_2" index="2" speed="13.89" length="27.20" shape="498.40,1013.60 498.40,986.40"/>
    </edge>
    <edge id=":I23_4" function="internal">
        <lane id=":I23_4_0" index="0" speed="10.36" length="5.01" shape="498.40,1013.60 499.11,1008.64"/>
    </edge>
    <edge id=":I23_5" function="internal">
        <lane id=":I23_5_0" index="0" speed="3.65" length="1.44" shape="498.40,1013.60 499.20,1012.40"/>
    </edge>
    <edge id=":I23_24" function="internal">
        <lane id=":I23_24_0" index="0" speed="10.36" length="19.50" shape="499.11,1008.64 499.35,1006.95 502.20,1002.20 506.95,999.35 513.60,998.40"/>
    </edge>
    <edge id=":I23_25" function="internal">
        <lane id=":I23_25_0" index="0" speed="3.65" length="3.23" shape="499.20,1012.40 500.00,1012.00 500.80,1012.40 501.60,1013.60"/>
    </edge>
    <edge id=":I23_6" function="internal">
        <lane id=":I23_6_0" index="0" speed="6.51" length="9.03" shape="513.60,1008.00 511.15,1008.35 509.40,1009.40 508.35,1011.15 508.00,1013.60"/>
    </edge>
    <edge id=":I23_7" function="internal">
        <lane id=":I23_7_0" index="0" speed="13.89" length="27.20" shape="513.60,1008.00 486.40,1008.00"/>
        <lane id=":I23_7_1" index="1" speed="13.89" length="27.20" shape="513.60,1004.80 486.40,1004.80"/>
        <lane id=":I23_7_2" index="2" speed="13.89" length="27.20" shape="513.60,1001.60 486.40,1001.60"/>
    </edge>
    <edge id=":I23_10" function="internal">
        <lane id=":I23_10_0" index="0" speed="10.36" length="5.01" shape="513.60,1001.60 508.64,1000.89"/>
    </edge>
    <edge id=":I23_11" function="internal">
        <lane id=":I23_11_0" index="0" speed="3.65" length="1.44" shape="513.60,1001.60 512.40,1000.80"/>
    </edge>
    <edge id=":I23_26" function="internal">
        <lane id=":I23_26_0" index="0" speed="10.36" length="19.50" shape="508.64,1000.89 506.95,1000.65 502.20,997.80 499.35,993.05 498.40,986.40"/>
    </edge>
    <edge id=":I23_27" function="internal">
        <lane id=":I23_27_0" index="0" speed="3.65" length="3.23" shape="512.40,1000.80 512.00,1000.00 512.40,999.20 513.60,998.40"/>
    </edge>
    <edge id=":I23_12" function="internal">
        <lane id=":I23_12_0" index="0" speed="6.51" length="9.03" shape="508.00,986.40 508.35,988.85 509.40,990.60 511.15,991.65 513.60,992.00"/>
    </edge>
    <edge id=":I23_13" function="internal">
        <lane id=":I23_13_0" index="0" speed="13.89" length="27.20" shape="508.00,986.40 508.00,1013.60"/>
        <lane id=":I23_13_1" index="1" speed="13.89" length="27.20" shape="504.80,986.40 504.80,1013.60"/>
        <lane id=":I23_13_2" index="2" speed="13.89" length="27.20" shape="501.60,986.40 501.60,1013.60"/>
    </edge>
    <edge id=":I23_16" function="internal">
        <lane id=":I23_16_0" index="0" speed="10.36" length="5.01" shape="501.60,986.40 500.89,991.36"/>
    </edge>
    <edge id=":I23_17" function="internal">
        <lane id=":I23_17_0" index="0" speed="3.65" length="1.44" shape="501.60,986.40 500.80,987.60"/>
    </edge>
    <edge id=":I23_28" function="internal">
        <lane id=":I23_28_0" index="0" speed="10.36" length="19.50" shape="500.89,991.36 500.65,993.05 497.80,997.80 493.05,1000.65 486.40,1001.60"/>
    </edge>
    <edge id=":I23_29" function="internal">
        <lane id=":I23_29_0" index="0" speed="3.65" length="3.23" shape="500.80,987.60 500.00,988.00 499.20,987.60 498.40,986.40"/>
    </edge>
    <edge id=":I23_18" function="internal">
        <lane id=":I23_18_0" index="0" speed="6.51" length="9.03" shape="486.40,992.00 488.85,991.65 490.60,990.60 491.65,988.85 492.00,986.40"/>
    </edge>
    <edge id=":I23_19" function="internal">
        <lane id=":I23_19_0" index="0" speed="13.89" length="27.20" shape="486.40,992.00 513.60,992.00"/>
        <lane id=":I23_19_1" index="1" speed="13.89" length="27.20" shape="486.40,995.20 513.60,995.20"/>
        <lane id=":I23_19_2" index="2" speed="13.89" length="27.20" shape="486.40,998.40 513.60,998.40"/>
    </edge>
    <edge id=":I23_22" function="internal">
        <lane id=":I23_22_0" index="0" speed="10.36" length="5.01" shape="486.40,998.40 491.36,999.11"/>
    </edge>
    <edge id=":I23_23" function="internal">
        <lane id=":I23_23_0" index="0" speed="3.65" length="1.44" shape="486.40,998.40 487.60,999.20"/>
    </edge>
    <edge id=":I23_30" function="internal">
        <lane id=":I23_30_0" index="0" speed="10.36" length="19.50" shape="491.36,999.11 493.05,999.35 497.80,1002.20 500.65,1006.95 501.60,1013.60"/>
    </edge>
    <edge id=":I23_31" function="internal">
        <lane id=":I23_31_0" index="0" speed="3.65" length="3.23" shape="487.60,999.20 488.00,1000.00 487.60,1000.80 486.40,1001.60"/>
    </edge>
    <edge id=":I24_0" function="internal">
        <lane id=":I24_0_0" index="0" speed="6.51" length="9.03" shape="492.00,1513.60 491.65,1511.15 490.60,1509.40 488.85,1508.35 486.40,1508.00"/>
    </edge>
    <edge id=":I24_1" function="internal">
        <lane id=":I24_1_0" index="0" speed="13.89" length="27.20" shape="492.00,1513.60 492.00,1486.40"/>
        <lane id=":I24_1_1" index="1" speed="13.89" length="27.20" shape="495.20,1513.60 495.20,1486.40"/>
        <lane id=":I24_1_2" index="2" speed="13.89" length="27.20" shape="498.40,1513.60 498.40,1486.40"/>
    </edge>
    <edge id=":I24_4" function="internal">
        <lane id=":I24_4_0" index="0" speed="10.36" length="5.01" shape="498.40,1513.60 499.11,1508.64"/>
    </edge>
    <edge id=":I24_5" function="internal">
        <lane id=":I24_5_0" index="0" speed="3.65" length="1.44" shape="498.40,1513.60 499.20,1512.40"/>
    </edge>
    <edge id=":I24_24" function="internal">
        <lane id=":I24_24_0" index="0" speed="10.36" length="19.50" shape="499.11,1508.64 499.35,1506.95 502.20,1502.20 506.95,1499.35 513.60,1498.40"/>
    </edge>
    <edge id=":I24_25" function="internal">
        <lane id=":I24_25_0" index="0" speed="3.65" length="3.23" shape="499.20,1512.40 500.00,1512.00 500.80,1512.40 501.60,1513.60"/>
    </edge>
    <edge id=":I24_6" function="internal">
        <lane id=":I24_6_0" index="0" speed="6.51" length="9.03" shape="513.60,1508.00 511.15,1508.35 509.40,1509.40 508.35,1511.15 508.00,1513.60"/>
    </edge>
    <edge id=":I24_7" function="internal">
        <lane id=":I24_7_0" index="0" speed="13.89" length="27.20" shape="513.60,1508.00 486.40,1508.00"/>
        <lane id=":I24_7_1" index="1" speed="13.89" length="27.20" shape="513.60,1504.80 486.40,1504.80"/>
        <lane id=":I24_7_2" index="2" speed="13.89" length="27.20" shape="513.60,1501.60 486.40,1501.60"/>
    </edge>
    <edge id=":I24_10" function="internal">
        <lane id=":I24_10_0" index="0" speed="10.36" length="5.01" shape="513.60,1501.60 508.64,1500.89"/>
    </edge>
    <edge id=":I24_11" function="internal">
        <lane id=":I24_11_0" index="0" speed="3.65" length="1.44" shape="513.60,1501.60 512.40,1500.80"/>
    </edge>
    <edge id=":I24_26" function="internal">
        <lane id=":I24_26_0" index="0" speed="10.36" length="19.50" shape="508.64,1500.89 506.95,1500.65 502.20,1497.80 499.35,1493.05 498.40,1486.40"/>
    </edge>
    <edge id=":I24_27" function="internal">
        <lane id=":I24_27_0" index="0" speed="3.65" length="3.23" shape="512.40,1500.80 512.00,1500.00 512.40,1499.20 513.60,1498.40"/>
    </edge>
    <edge id=":I24_12" function="internal">
        <lane id=":I24_12_0" index="0" speed="6.51" length="9.03" shape="508.00,1486.40 508.35,1488.85 509.40,1490.60 511.15,1491.65 513.60,1492.00"/>
    </edge>
    <edge id=":I24_13" function="internal">
        <lane id=":I24_13_0" index="0" speed="13.89" length="27.20" shape="508.00,1486.40 508.00,1513.60"/>
        <lane id=":I24_13_1" index="1" speed="13.89" length="27.20" shape="504.80,1486.40 504.80,1513.60"/>
        <lane id=":I24_13_2" index="2" speed="13.89" length="27.20" shape="501.60,1486.40 501.60,1513.60"/>
    </edge>
    <edge id=":I24_16" function="internal">
        <lane id=":I24_16_0" index="0" speed="10.36" length="5.01" shape="501.60,1486.40 500.89,1491.36"/>
    </edge>
    <edge id=":I24_17" function="internal">
        <lane id=":I24_17_0" index="0" speed="3.65" length="1.44" shape="501.60,1486.40 500.80,1487.60"/>
    </edge>
    <edge id=":I24_28" function="internal">
        <lane id=":I24_28_0" index="0" speed="10.36" length="19.50" shape="500.89,1491.36 500.65,1493.05 497.80,1497.80 493.05,1500.65 486.40,1501.60"/>
    </edge>
    <edge id=":I24_29" function="internal">
        <lane id=":I24_29_0" index="0" speed="3.65" length="3.23" shape="500.80,1487.60 500.00,1488.00 499.20,1487.60 498.40,1486.40"/>
    </edge>
    <edge id=":I24_18" function="internal">
        <lane id=":I24_18_0" index="0" speed="6.51" length="9.03" shape="486.40,1492.00 488.85,1491.65 490.60,1490.60 491.65,1488.85 492.00,1486.40"/>
    </edge>
    <edge id=":I24_19" function="internal">
        <lane id=":I24_19_0" index="0" speed="13.89" length="27.20" shape="486.40,1492.00 513.60,1492.00"/>
        <lane id=":I24_19_1" index="1" speed="13.89" length="27.20" shape="486.40,1495.20 513.60,1495.20"/>
        <lane id=":I24_19_2" index="2" speed="13.89" length="27.20" shape="486.40,1498.40 513.60,1498.40"/>
    </edge>
    <edge id=":I24_22" function="internal">
        <lane id=":I24_22_0" index="0" speed="10.36" length="5.01" shape="486.40,1498.40 491.36,1499.11"/>
    </edge>
    <edge id=":I24_23" function="internal">
        <lane id=":I24_23_0" index="0" speed="3.65" length="1.44" shape="486.40,1498.40 487.60,1499.20"/>
    </edge>
    <edge id=":I24_30" function="internal">
        <lane id=":I24_30_0" index="0" speed="10.36" length="19.50" shape="491.36,1499.11 493.05,1499.35 497.80,1502.20 500.65,1506.95 501.60,1513.60"/>
    </edge>
    <edge id=":I24_31" function="internal">
        <lane id=":I24_31_0" index="0" speed="3.65" length="3.23" shape="487.60,1499.20 488.00,1500.00 487.60,1500.80 486.40,1501.60"/>
    </edge>
    <edge id=":I32_0" function="internal">
        <lane id=":I32_0_0" index="0" speed="6.51" length="9.03" shape="992.00,513.60 991.65,511.15 990.60,509.40 988.85,508.35 986.40,508.00"/>
    </edge>
    <edge id=":I32_1" function="internal">
        <lane id=":I32_1_0" index="0" speed="13.89" length="27.20" shape="992.00,513.60 992.00,486.40"/>
        <lane id=":I32_1_1" index="1" speed="13.89" length="27.20" shape="995.20,513.60 995.20,486.40"/>
        <lane id=":I32_1_2" index="2" speed="13.89" length="27.20" shape="998.40,513.60 998.40,486.40"/>
    </edge>
    <edge id=":I32_4" function="internal">
        <lane id=":I32_4_0" index="0" speed="10.36" length="5.01" shape="998.40,513.60 999.11,508.64"/>
    </edge>
    <edge id=":I32_5" function="internal">
        <lane id=":I32_5_0" index="0" speed="3.65" length="1.44" shape="998.40,513.60 999.20,512.40"/>
    </edge>
    <edge id=":I32_24" function="internal">
        <lane id=":I32_24_0" index="0" speed="10.36" length="19.50" shape="999.11,508.64 999.35,506.95 1002.20,502.20 1006.95,499.35 1013.60,498.40"/>
    </edge>
    <edge id=":I32_25" function="internal">
        <lane id=":I32_25_0" index="0" speed="3.65" length="3.23" shape="999.20,512.40 1000.00,512.00 1000.80,512.40 1001.60,513.60"/>
    </edge>
    <edge id=":I32_6" function="internal">
        <lane id=":I32_6_0" index="0" speed="6.51" length="9.03" shape="1013.60,508.00 1011.15,508.35 1009.40,509.40 1008.35,511.15 1008.00,513.60"/>
    </edge>
    <edge id=":I32_7" function="internal">
        <lane id=":I32_7_0" index="0" speed="13.89" length="27.20" shape="1013.60,508.00 986.40,508.00"/>
        <lane id=":I32_7_1" index="1" speed="13.89" length="27.20" shape="1013.60,504.80 986.40,504.80"/>
        <lane id=":I32_7_2" index="2" speed="13.89" length="27.20" shape="1013.60,501.60 986.40,501.60"/>
    </edge>
    <edge id=":I32_10" function="internal">
        <lane id=":I32_10_0" index="0" speed="10.36" length="5.01" shape="1013.60,501.60 1008.64,500.89"/>
    </edge>
    <edge id=":I32_11" function="internal">
        <lane id=":I32_11_0" index="0" speed="3.65" length="1.44" shape="1013.60,501.60 1012.40,500.80"/>
    </edge>
    <edge id=":I32_26" function="internal">
        <lane id=":I32_26_0" index="0" speed="10.36" length="19.50" shape="1008.64,500.89 1006.95,500.65 1002.20,497.80 999.35,493.05 998.40,486.40"/>
    </edge>
    <edge id=":I32_27" function="internal">
        <lane id=":I32_27_0" index="0" speed="3.65" length="3.23" shape="1012.40,500.80 1012.00,500.00 1012.40,499.20 1013.60,498.40"/>
    </edge>
    <edge id=":I32_12" function="internal">
        <lane id=":I32_12_0" index="0" speed="6.51" length="9.03" shape="1008.00,486.40 1008.35,488.85 1009.40,490.60 1011.15,491.65 1013.60,492.00"/>
    </edge>
    <edge id=":I32_13" function="internal">
        <lane id=":I32_13_0" index="0" speed="13.89" length="27.20" shape="1008.00,486.40 1008.00,513.60"/>
        <lane id=":I32_13_1" index="1" speed="13.89" length="27.20" shape="1004.80,486.40 1004.80,513.60"/>
        <lane id=":I32_13_2" index="2" speed="13.89" length="27.20" shape="1001.60,486.40 1001.60,513.60"/>
    </edge>
    <edge id=":I32_16" function="internal">
        <lane id=":I32_16_0" index="0" speed="10.36" length="5.01" shape="1001.60,486.40 1000.89,491.36"/>
    </edge>
    <edge id=":I32_17" function="internal">
        <lane id=":I32_17_0" index="0" speed="3.65" length="1.44" shape="1001.60,486.40 1000.80,487.60"/>
    </edge>
    <edge id=":I32_28" function="internal">
        <lane id=":I32_28_0" index="0" speed="10.36" length="19.50" shape="1000.89,491.36 1000.65,493.05 997.80,497.80 993.05,500.65 986.40,501.60"/>
    </edge>
    <edge id=":I32_29" function="internal">
        <lane id=":I32_29_0" index="0" speed="3.65" length="3.23" shape="1000.80,487.60 1000.00,488.00 999.20,487.60 998.40,486.40"/>
    </edge>
    <edge id=":I32_18" function="internal">
        <lane id=":I32_18_0" index="0" speed="6.51" length="9.03" shape="986.40,492.00 988.85,491.65 990.60,490.60 991.65,488.85 992.00,486.40"/>
    </edge>
    <edge id=":I32_19" function="internal">
        <lane id=":I32_19_0" index="0" speed="13.89" length="27.20" shape="986.40,492.00 1013.60,492.00"/>
        <lane id=":I32_19_1" index="1" speed="13.89" length="27.20" shape="986.40,495.20 1013.60,495.20"/>
        <lane id=":I32_19_2" index="2" speed="13.89" length="27.20" shape="986.40,498.40 1013.60,498.40"/>
    </edge>
    <edge id=":I32_22" function="internal">
        <lane id=":I32_22_0" index="0" speed="10.36" length="5.01" shape="986.40,498.40 991.36,499.11"/>
    </edge>
    <edge id=":I32_23" function="internal">
        <lane id=":I32_23_0" index="0" speed="3.65" length="1.44" shape="986.40,498.40 987.60,499.20"/>
    </edge>
    <edge id=":I32_30" function="internal">
        <lane id=":I32_30_0" index="0" speed="10.36" length="19.50" shape="991.36,499.11 993.05,499.35 997.80,502.20 1000.65,506.95 1001.60,513.60"/>
    </edge>
    <edge id=":I32_31" function="internal">
        <lane id=":I32_31_0" index="0" speed="3.65" length="3.23" shape="987.60,499.20 988.00,500.00 987.60,500.80 986.40,501.60"/>
    </edge>
    <edge id=":I33_0" function="internal">
        <lane id=":I33_0_0" index="0" speed="6.51" length="9.03" shape="992.00,1013.60 991.65,1011.15 990.60,1009.40 988.85,1008.35 986.40,1008.00"/>
    </edge>
    <edge id=":I33_1" function="internal">
        <lane id=":I33_1_0" index="0" speed="13.89" length="27.20" shape="992.00,1013.60 992.00,986.40"/>
        <lane id=":I33_1_1" index="1" speed="13.89" length="27.20" shape="995.20,1013.60 995.20,986.40"/>
        <lane id=":I33_1_2" index="2" speed="13.89" length="27.20" shape="998.40,1013.60 998.40,986.40"/>
    </edge>
    <edge id=":I33_4" function="internal">
        <lane id=":I33_4_0" index="0" speed="10.36" length="5.01" shape="998.40,1013.60 999.11,1008.64"/>
    </edge>
    <edge id=":I33_5" function="internal">
        <lane id=":I33_5_0" index="0" speed="3.65" length="1.44" shape="998.40,1013.60 999.20,1012.40"/>
    </edge>
    <edge id=":I33_24" function="internal">
        <lane id=":I33_24_0" index="0" speed="10.36" length="19.50" shape="999.11,1008.64 999.35,1006.95 1002.20,1002.20 1006.95,999.35 1013.60,998.40"/>
    </edge>
    <edge id=":I33_25" function="internal">
        <lane id=":I33_25_0" index="0" speed="3.65" length="3.23" shape="999.20,1012.40 1000.00,1012.00 1000.80,1012.40 1001.60,1013.60"/>
    </edge>
    <edge id=":I33_6" function="internal">
        <lane id=":I33_6_0" index="0" speed="6.51" length="9.03" shape="1013.60,1008.00 1011.15,1008.35 1009.40,1009.40 1008.35,1011.15 1008.00,1013.60"/>
    </edge>
    <edge id=":I33_7" function="internal">
        <lane id=":I33_7_0" index="0" speed="13.89" length="27.20" shape="1013.60,1008.00 986.40,1008.00"/>
        <lane id=":I33_7_1" index="1" speed="13.89" length="27.20" shape="1013.60,1004.80 986.40,1004.80"/>
        <lane id=":I33_7_2" index="2" speed="13.89" length="27.20" shape="1013.60,1001.60 986.40,1001.60"/>
    </edge>
    <edge id=":I33_10" function="internal">
        <lane id=":I33_10_0" index="0" speed="10.36" length="5.01" shape="1013.60,1001.60 1008.64,1000.89"/>
    </edge>
    <edge id=":I33_11" function="internal">
        <lane id=":I33_11_0" index="0" speed="3.65" length="1.44" shape="1013.60,1001.60 1012.40,1000.80"/>
    </edge>
    <edge id=":I33_26" function="internal">
        <lane id=":I33_26_0" index="0" speed="10.36" length="19.50" shape="1008.64,1000.89 1006.95,1000.65 1002.20,997.80 999.35,993.05 998.40,986.40"/>
    </edge>
    <edge id=":I33_27" function="internal">
        <lane id=":I33_27_0" index="0" speed="3.65" length="3.23" shape="1012.40,1000.80 1012.00,1000.00 1012.40,999.20 1013.60,998.40"/>
    </edge>
    <edge id=":I33_12" function="internal">
        <lane id=":I33_12_0" index="0" speed="6.51" length="9.03" shape="1008.00,986.40 1008.35,988.85 1009.40,990.60 1011.15,991.65 1013.60,992.00"/>
    </edge>
    <edge id=":I33_13" function="internal">
        <lane id=":I33_13_0" index="0" speed="13.89" length="27.20" shape="1008.00,986.40 1008.00,1013.60"/>
        <lane id=":I33_13_1" index="1" speed="13.89" length="27.20" shape="1004.80,986.40 1004.80,1013.60"/>
        <lane id=":I33_13_2" index="2" speed="13.89" length="27.20" shape="1001.60,986.40 1001.60,1013.60"/>
    </edge>
    <edge id=":I33_16" function="internal">
        <lane id=":I33_16_0" index="0" speed="10.36" length="5.01" shape="1001.60,986.40 1000.89,991.36"/>
    </edge>
    <edge id=":I33_17" function="internal">
        <lane id=":I33_17_0" index="0" speed="3.65" length="1.44" shape="1001.60,986.40 1000.80,987.60"/>
    </edge>
    <edge id=":I33_28" function="internal">
        <lane id=":I33_28_0" index="0" speed="10.36" length="19.50" shape="1000.89,991.36 1000.65,993.05 997.80,997.80 993.05,1000.65 986.40,1001.60"/>
    </edge>
    <edge id=":I33_29" function="internal">
        <lane id=":I33_29_0" index="0" speed="3.65" length="3.23" shape="1000.80,987.60 1000.00,988.00 999.20,987.60 998.40,986.40"/>
    </edge>
    <edge id=":I33_18" function="internal">
        <lane id=":I33_18_0" index="0" speed="6.51" length="9.03" shape="986.40,992.00 988.85,991.65 990.60,990.60 991.65,988.85 992.00,986.40"/>
    </edge>
    <edge id=":I33_19" function="internal">
        <lane id=":I33_19_0" index="0" speed="13.89" length="27.20" shape="986.40,992.00 1013.60,992.00"/>
        <lane id=":I33_19_1" index="1" speed="13.89" length="27.20" shape="986.40,995.20 1013.60,995.20"/>
        <lane id=":I33_19_2" index="2" speed="13.89" length="27.20" shape="986.40,998.40 1013.60,998.40"/>
    </edge>
    <edge id=":I33_22" function="internal">
        <lane id=":I33_22_0" index="0" speed="10.36" length="5.01" shape="986.40,998.40 991.36,999.11"/>
    </edge>
    <edge id=":I33_23" function="internal">
        <lane id=":I33_23_0" index="0" speed="3.65" length="1.44" shape="986.40,998.40 987.60,999.20"/>
    </edge>
    <edge id=":I33_30" function="internal">
        <lane id=":I33_30_0" index="0" speed="10.36" length="19.50" shape="991.36,999.11 993.05,999.35 997.80,1002.20 1000.65,1006.95 1001.60,1013.60"/>
    </edge>
    <edge id=":I33_31" function="internal">
        <lane id=":I33_31_0" index="0" speed="3.65" length="3.23" shape="987.60,999.20 988.00,1000.00 987.60,1000.80 986.40,1001.60"/>
    </edge>
    <edge id=":I34_0" function="internal">
        <lane id=":I34_0_0" index="0" speed="6.51" length="9.03" shape="992.00,1513.60 991.65,1511.15 990.60,1509.40 988.85,1508.35 986.40,1508.00"/>
    </edge>
    <edge id=":I34_1" function="internal">
        <lane id=":I34_1_0" index="0" speed="13.89" length="27.20" shape="992.00,1513.60 992.00,1486.40"/>
        <lane id=":I34_1_1" index="1" speed="13.89" length="27.20" shape="995.20,1513.60 995.20,1486.40"/>
        <lane id=":I34_1_2" index="2" speed="13.89" length="27.20" shape="998.40,1513.60 998.40,1486.40"/>
    </edge>
    <edge id=":I34_4" function="internal">
        <lane id=":I34_4_0" index="0" speed="10.36" length="5.01" shape="998.40,1513.60 999.11,1508.64"/>
    </edge>
    <edge id=":I34_5" function="internal">
        <lane id=":I34_5_0" index="0" speed="3.65" length="1.44" shape="998.40,1513.60 999.20,1512.40"/>
    </edge>
    <edge id=":I34_24" function="internal">
        <lane id=":I34_24_0" index="0" speed="10.36" length="19.50" shape="999.11,1508.64 999.35,1506.95 1002.20,1502.20 1006.95,1499.35 1013.60,1498.40"/>
    </edge>
    <edge id=":I34_25" function="internal">
        <lane id=":I34_25_0" index="0" speed="3.65" length="3.23" shape="999.20,1512.40 1000.00,1512.00 1000.80,1512.40 1001.60,1513.60"/>
    </edge>
    <edge id=":I34_6" function="internal">
        <lane id=":I34_6_0" index="0" speed="6.51" length="9.03" shape="1013.60,1508.00 1011.15,1508.35 1009.40,1509.40 1008.35,1511.15 1008.00,1513.60"/>
    </edge>
    <edge id=":I34_7" function="internal">
        <lane id=":I34_7_0" index="0" speed="13.89" length="27.20" shape="1013.60,1508.00 986.40,1508.00"/>
        <lane id=":I34_7_1" index="1" speed="13.89" length="27.20" shape="1013.60,1504.80 986.40,1504.80"/>
        <lane id=":I34_7_2" index="2" speed="13.89" length="27.20" shape="1013.60,1501.60 986.40,1501.60"/>
    </edge>
    <edge id=":I34_10" function="internal">
        <lane id=":I34_10_0" index="0" speed="10.36" length="5.01" shape="1013.60,1501.60 1008.64,1500.89"/>
    </edge>
    <edge id=":I34_11" function="internal">
        <lane id=":I34_11_0" index="0" speed="3.65" length="1.44" shape="1013.60,1501.60 1012.40,1500.80"/>
    </edge>
    <edge id=":I34_26" function="internal">
        <lane id=":I34_26_0" index="0" speed="10.36" length="19.50" shape="1008.64,1500.89 1006.95,1500.65 1002.20,1497.80 999.35,1493.05 998.40,1486.40"/>
    </edge>
    <edge id=":I34_27" function="internal">