<?xml version="1.0" encoding="UTF-8"?>

<!-- generated on 05/12/21 19:17:20 by Eclipse SUMO netedit Version 1.8.0
<configuration xmlns:xsi="http://www.w3.org/2001/XMLSchema-instance" xsi:noNamespaceSchemaLocation="http://sumo.dlr.de/xsd/netconvertConfiguration.xsd">

    <input>
        <sumo-net-file value="E:\StevenSU\OneDrive%20-%20City%20University%20of%20Hong%20Kong\Research%20in%20CityU\Code\SUMO_MFD\Bilevel_3.0\network\GridBuffer.net.xml"/>
    </input>

    <output>
        <output-file value="E:\StevenSU\OneDrive%20-%20City%20University%20of%20Hong%20Kong\Research%20in%20CityU\Code\SUMO_MFD\Bilevel_3.0\network\GridBuffer.net.xml"/>
        <plain-output-prefix value="E:\StevenSU\OneDrive%20-%20City%20University%20of%20Hong%20Kong\Research%20in%20CityU\Code\SUMO_MFD\Bilevel_3.0\network\GridBuffer\GridBuffer"/>
    </output>

    <processing>
        <geometry.min-radius.fix.railways value="false"/>
        <geometry.max-grade.fix value="false"/>
        <offset.disable-normalization value="true"/>
        <lefthand value="false"/>
    </processing>

    <junctions>
        <no-turnarounds value="true"/>
        <junctions.corner-detail value="5"/>
        <junctions.limit-turn-speed value="5.5"/>
        <rectangular-lane-cut value="false"/>
    </junctions>

    <pedestrian>
        <walkingareas value="false"/>
    </pedestrian>

    <netedit>
        <edgeTypes-output value="E:\StevenSU\OneDrive - City University of Hong Kong\Research in CityU\Code\SUMO_MFD\Bilevel_3.0\network\Edge.xml"/>
    </netedit>

    <report>
        <aggregate-warnings value="5"/>
    </report>

</configuration>
-->

<tlLogics version="1.6" xmlns:xsi="http://www.w3.org/2001/XMLSchema-instance" xsi:noNamespaceSchemaLocation="http://sumo.dlr.de/xsd/tllogic_file.xsd">
    <tlLogic id="A1" type="static" programID="0" offset="0">
        <phase duration="45" state="GGGgggrrrrrGGGGg"/>
        <phase duration="5"  state="yyyyyyrrrrryyyyy"/>
        <phase duration="45" state="rrrrrrGGGGgGrrrr"/>
        <phase duration="5"  state="rrrrrryyyyyyrrrr"/>
    </tlLogic>
    <tlLogic id="A2" type="static" programID="0" offset="0">
        <phase duration="45" state="GGGGggrrrrrrGGGGggrrrrr"/>
        <phase duration="5"  state="yyyyyyrrrrrryyyyyyrrrrr"/>
        <phase duration="45" state="rrrrrrGGGGggrrrrrrGGGGg"/>
        <phase duration="5"  state="rrrrrryyyyyyrrrrrryyyyy"/>
    </tlLogic>
    <tlLogic id="A3" type="static" programID="0" offset="0">
        <phase duration="45" state="GGGgggrrrrrGGGGg"/>
        <phase duration="5"  state="yyyyyyrrrrryyyyy"/>
        <phase duration="45" state="rrrrrrGGGGgGrrrr"/>
        <phase duration="5"  state="rrrrrryyyyyyrrrr"/>
    </tlLogic>
    <tlLogic id="B0" type="static" programID="0" offset="0">
        <phase duration="45" state="rrrrrGGGGgGGGggg"/>
        <phase duration="5"  state="rrrrryyyyyyyyyyy"/>
        <phase duration="45" state="GGGGgGrrrrrrrrrr"/>
        <phase duration="5"  state="yyyyyyrrrrrrrrrr"/>
    </tlLogic>
    <tlLogic id="B1" type="static" programID="0" offset="0">
        <phase duration="45" state="GGGGggrrrrrrGGGGggrrrrrr"/>
        <phase duration="5"  state="yyyyyyrrrrrryyyyyyrrrrrr"/>
        <phase duration="45" state="rrrrrrGGGGggrrrrrrGGGGgg"/>
        <phase duration="5"  state="rrrrrryyyyyyrrrrrryyyyyy"/>
    </tlLogic>
    <tlLogic id="B2" type="static" programID="0" offset="0">
        <phase duration="45" state="GGGGggrrrrrrGGGGggrrrrrr"/>
        <phase duration="5"  state="yyyyyyrrrrrryyyyyyrrrrrr"/>
        <phase duration="45" state="rrrrrrGGGGggrrrrrrGGGGgg"/>
        <phase duration="5"  state="rrrrrryyyyyyrrrrrryyyyyy"/>
    </tlLogic>
    <tlLogic id="B3" type="static" programID="0" offset="0">
        <phase duration="45" state="GGGGggrrrrrrGGGGggrrrrrr"/>
        <phase duration="5"  state="yyyyyyrrrrrryyyyyyrrrrrr"/>
        <phase duration="45" state="rrrrrrGGGGggrrrrrrGGGGgg"/>
        <phase duration="5"  state="rrrrrryyyyyyrrrrrryyyyyy"/>
    </tlLogic>
    <tlLogic id="B4" type="static" programID="0" offset="0">
        <phase duration="45" state="GGGgggrrrrrGGGGg"/>
        <phase duration="5"  state="yyyyyyrrrrryyyyy"/>
        <phase duration="45" state="rrrrrrGGGGgGrrrr"/>
        <phase duration="5"  state="rrrrrryyyyyyrrrr"/>
    </tlLogic>
    <tlLogic id="C0" type="static" programID="0" offset="0">
        <phase duration="42" state="GGGGggrrrrrGGGGgrrrrr"/>
        <phase duration="3"  state="yyyyyyrrrrryyyyyrrrrr"/>
        <phase duration="42" state="rrrrrrGGGGgrrrrrGGGgg"/>
        <phase duration="3"  state="rrrrrryyyyyrrrrryyyyy"/>
    </tlLogic>
    <tlLogic id="C1" type="static" programID="0" offset="0">
        <phase duration="45" state="GGGGggrrrrrrGGGGggrrrrrr"/>
        <phase duration="5"  state="yyyyyyrrrrrryyyyyyrrrrrr"/>
        <phase duration="45" state="rrrrrrGGGGggrrrrrrGGGGgg"/>
        <phase duration="5"  state="rrrrrryyyyyyrrrrrryyyyyy"/>
    </tlLogic>
    <tlLogic id="C2" type="static" programID="0" offset="0">
        <phase duration="45" state="GGGGggrrrrrrGGGGggrrrrrr"/>
        <phase duration="5"  state="yyyyyyrrrrrryyyyyyrrrrrr"/>
        <phase duration="45" state="rrrrrrGGGGggrrrrrrGGGGgg"/>
        <phase duration="5"  state="rrrrrryyyyyyrrrrrryyyyyy"/>
    </tlLogic>
    <tlLogic id="C3" type="static" programID="0" offset="0">
        <phase duration="45" state="GGGGggrrrrrrGGGGggrrrrrr"/>
        <phase duration="5"  state="yyyyyyrrrrrryyyyyyrrrrrr"/>
        <phase duration="45" state="rrrrrrGGGGggrrrrrrGGGGgg"/>
        <phase duration="5"  state="rrrrrryyyyyyrrrrrryyyyyy"/>
    </tlLogic>
    <tlLogic id="C4" type="static" programID="0" offset="0">
        <phase duration="45" state="GGGGgrrrrrrGGGGggrrrrrr"/>
        <phase duration="5"  state="yyyyyrrrrrryyyyyyrrrrrr"/>
        <phase duration="45" state="rrrrrGGGGggrrrrrrGGGGgg"/>
        <phase duration="5"  state="rrrrryyyyyyrrrrrryyyyyy"/>
    </tlLogic>
    <tlLogic id="D0" type="static" programID="0" offset="0">
        <phase duration="45" state="rrrrrGGGGgGGGggg"/>
        <phase duration="5"  state="rrrrryyyyyyyyyyy"/>
        <phase duration="45" state="GGGGgGrrrrrrrrrr"/>
        <phase duration="5"  state="yyyyyyrrrrrrrrrr"/>
    </tlLogic>
    <tlLogic id="D1" type="static" programID="0" offset="0">
        <phase duration="45" state="GGGGggrrrrrrGGGGggrrrrrr"/>
        <phase duration="5"  state="yyyyyyrrrrrryyyyyyrrrrrr"/>
        <phase duration="45" state="rrrrrrGGGGggrrrrrrGGGGgg"/>
        <phase duration="5"  state="rrrrrryyyyyyrrrrrryyyyyy"/>
    </tlLogic>
    <tlLogic id="D2" type="static" programID="0" offset="0">
        <phase duration="45" state="GGGGggrrrrrrGGGGggrrrrrr"/>
        <phase duration="5"  state="yyyyyyrrrrrryyyyyyrrrrrr"/>
        <phase duration="45" state="rrrrrrGGGGggrrrrrrGGGGgg"/>
        <phase duration="5"  state="rrrrrryyyyyyrrrrrryyyyyy"/>
    </tlLogic>
    <tlLogic id="D3" type="static" programID="0" offset="0">
        <phase duration="45" state="GGGGggrrrrrrGGGGggrrrrrr"/>
        <phase duration="5"  state="yyyyyyrrrrrryyyyyyrrrrrr"/>
        <phase duration="45" state="rrrrrrGGGGggrrrrrrGGGGgg"/>
        <phase duration="5"  state="rrrrrryyyyyyrrrrrryyyyyy"/>
    </tlLogic>
    <tlLogic id="D4" type="static" programID="0" offset="0">
        <phase duration="45" state="GGGgggrrrrrGGGGg"/>
        <phase duration="5"  state="yyyyyyrrrrryyyyy"/>
        <phase duration="45" state="rrrrrrGGGGgGrrrr"/>
        <phase duration="5"  state="rrrrrryyyyyyrrrr"/>
    </tlLogic>
    <tlLogic id="E1" type="static" programID="0" offset="0">
        <phase duration="45" state="GGGGgGGGgggrrrrr"/>
        <phase duration="5"  state="yyyyyyyyyyyrrrrr"/>
        <phase duration="45" state="GrrrrrrrrrrGGGGg"/>
        <phase duration="5"  state="yrrrrrrrrrryyyyy"/>
    </tlLogic>
    <tlLogic id="E2" type="static" programID="0" offset="0">
        <phase duration="45" state="GGGGggrrrrrGGGGggrrrrrr"/>
        <phase duration="5"  state="yyyyyyrrrrryyyyyyrrrrrr"/>
        <phase duration="45" state="rrrrrrGGGGgrrrrrrGGGGgg"/>
        <phase duration="5"  state="rrrrrryyyyyrrrrrryyyyyy"/>
    </tlLogic>
    <tlLogic id="E3" type="static" programID="0" offset="0">
        <phase duration="45" state="GGGGgGGGgggrrrrr"/>
        <phase duration="5"  state="yyyyyyyyyyyrrrrr"/>
        <phase duration="45" state="GrrrrrrrrrrGGGGg"/>
        <phase duration="5"  state="yrrrrrrrrrryyyyy"/>
    </tlLogic>
    <tlLogic id="P0" type="static" programID="0" offset="0">
        <phase duration="45" state="GGGGGG"/>
        <phase duration="5"  state="yyyyyy"/>
        <phase duration="45" state="rrrrrr"/>
    </tlLogic>
    <tlLogic id="P1" type="static" programID="0" offset="0">
        <phase duration="45" state="GGGGGG"/>
        <phase duration="5"  state="yyyyyy"/>
        <phase duration="45" state="rrrrrr"/>
    </tlLogic>
    <tlLogic id="P2" type="static" programID="0" offset="0">
        <phase duration="45" state="GGGGGG"/>
        <phase duration="5"  state="yyyyyy"/>
        <phase duration="5"  state="rrrrrr"/>
    </tlLogic>
    <tlLogic id="P3" type="static" programID="0" offset="0">
        <phase duration="45" state="GGGGGG"/>
        <phase duration="5"  state="yyyyyy"/>
        <phase duration="45" state="rrrrrr"/>
    </tlLogic>

    <connection from="0" to="4" fromLane="0" toLane="0" tl="A1" linkIndex="11"/>
    <connection from="0" to="3" fromLane="0" toLane="0" tl="A1" linkIndex="12"/>
    <connection from="0" to="3" fromLane="1" toLane="1" tl="A1" linkIndex="13"/>
    <connection from="0" to="3" fromLane="2" toLane="2" tl="A1" linkIndex="14"/>
    <connection from="0" to="2" fromLane="2" toLane="2" tl="A1" linkIndex="15"/>
    <connection from="1" to="15" fromLane="0" toLane="0" tl="B0" linkIndex="10"/>
    <connection from="1" to="15" fromLane="1" toLane="1" tl="B0" linkIndex="11"/>
    <connection from="1" to="15" fromLane="2" toLane="2" tl="B0" linkIndex="12"/>
    <connection from="1" to="14" fromLane="2" toLane="1" tl="B0" linkIndex="13"/>
    <connection from="1" to="14" fromLane="2" toLane="2" tl="B0" linkIndex="14"/>
    <connection from="1" to="13" fromLane="2" toLane="2" tl="B0" linkIndex="15"/>
    <connection from="10" to="25" fromLane="0" toLane="0" tl="B3" linkIndex="18"/>
    <connection from="10" to="27" fromLane="0" toLane="0" tl="B3" linkIndex="19"/>
    <connection from="10" to="27" fromLane="1" toLane="1" tl="B3" linkIndex="20"/>
    <connection from="10" to="27" fromLane="2" toLane="2" tl="B3" linkIndex="21"/>
    <connection from="10" to="26" fromLane="2" toLane="2" tl="B3" linkIndex="22"/>
    <connection from="10" to="24" fromLane="2" toLane="2" tl="B3" linkIndex="23"/>
    <connection from="11" to="8" fromLane="0" toLane="0" tl="A3" linkIndex="0"/>
    <connection from="11" to="8" fromLane="1" toLane="1" tl="A3" linkIndex="1"/>
    <connection from="11" to="8" fromLane="2" toLane="2" tl="A3" linkIndex="2"/>
    <connection from="11" to="10" fromLane="2" toLane="1" tl="A3" linkIndex="3"/>
    <connection from="11" to="10" fromLane="2" toLane="2" tl="A3" linkIndex="4"/>
    <connection from="11" to="9" fromLane="2" toLane="2" tl="A3" linkIndex="5"/>
    <connection from="12" to="29" fromLane="0" toLane="0" tl="B4" linkIndex="11"/>
    <connection from="12" to="30" fromLane="0" toLane="0" tl="B4" linkIndex="12"/>
    <connection from="12" to="30" fromLane="1" toLane="1" tl="B4" linkIndex="13"/>
    <connection from="12" to="30" fromLane="2" toLane="2" tl="B4" linkIndex="14"/>
    <connection from="12" to="28" fromLane="2" toLane="2" tl="B4" linkIndex="15"/>
    <connection from="14" to="19" fromLane="0" toLane="0" tl="B1" linkIndex="12"/>
    <connection from="14" to="18" fromLane="0" toLane="0" tl="B1" linkIndex="13"/>
    <connection from="14" to="18" fromLane="1" toLane="1" tl="B1" linkIndex="14"/>
    <connection from="14" to="18" fromLane="2" toLane="2" tl="B1" linkIndex="15"/>
    <connection from="14" to="16" fromLane="2" toLane="2" tl="B1" linkIndex="16"/>
    <connection from="14" to="17" fromLane="2" toLane="2" tl="B1" linkIndex="17"/>
    <connection from="15" to="33" fromLane="0" toLane="0" tl="C0" linkIndex="16"/>
    <connection from="15" to="33" fromLane="1" toLane="1" tl="C0" linkIndex="17"/>
    <connection from="15" to="33" fromLane="2" toLane="2" tl="C0" linkIndex="18"/>
    <connection from="15" to="32" fromLane="2" toLane="2" tl="C0" linkIndex="19"/>
    <connection from="15" to="31" fromLane="2" toLane="2" tl="C0" linkIndex="20"/>
    <connection from="16" to="3" fromLane="0" toLane="0" tl="A1" linkIndex="6"/>
    <connection from="16" to="3" fromLane="1" toLane="1" tl="A1" linkIndex="7"/>
    <connection from="16" to="2" fromLane="2" toLane="1" tl="A1" linkIndex="8"/>
    <connection from="16" to="2" fromLane="2" toLane="2" tl="A1" linkIndex="9"/>
    <connection from="16" to="4" fromLane="2" toLane="2" tl="A1" linkIndex="10"/>
    <connection from="17" to="13" fromLane="0" toLane="0" tl="B0" linkIndex="0"/>
    <connection from="17" to="13" fromLane="1" toLane="1" tl="B0" linkIndex="1"/>
    <connection from="17" to="15" fromLane="2" toLane="1" tl="B0" linkIndex="2"/>
    <connection from="17" to="15" fromLane="2" toLane="2" tl="B0" linkIndex="3"/>
    <connection from="17" to="14" fromLane="2" toLane="2" tl="B0" linkIndex="4"/>
    <connection from="18" to="23" fromLane="0" toLane="0" tl="B2" linkIndex="12"/>
    <connection from="18" to="22" fromLane="0" toLane="0" tl="B2" linkIndex="13"/>
    <connection from="18" to="22" fromLane="1" toLane="1" tl="B2" linkIndex="14"/>
    <connection from="18" to="22" fromLane="2" toLane="2" tl="B2" linkIndex="15"/>
    <connection from="18" to="20" fromLane="2" toLane="2" tl="B2" linkIndex="16"/>
    <connection from="18" to="21" fromLane="2" toLane="2" tl="B2" linkIndex="17"/>
    <connection from="19" to="35" fromLane="0" toLane="0" tl="C1" linkIndex="18"/>
    <connection from="19" to="37" fromLane="0" toLane="0" tl="C1" linkIndex="19"/>
    <connection from="19" to="37" fromLane="1" toLane="1" tl="C1" linkIndex="20"/>
    <connection from="19" to="37" fromLane="2" toLane="2" tl="C1" linkIndex="21"/>
    <connection from="19" to="36" fromLane="2" toLane="2" tl="C1" linkIndex="22"/>
    <connection from="19" to="34" fromLane="2" toLane="2" tl="C1" linkIndex="23"/>
    <connection from="20" to="6" fromLane="0" toLane="0" tl="A2" linkIndex="6"/>
    <connection from="20" to="82" fromLane="0" toLane="0" tl="A2" linkIndex="7"/>
    <connection from="20" to="82" fromLane="1" toLane="1" tl="A2" linkIndex="8"/>
    <connection from="20" to="82" fromLane="2" toLane="2" tl="A2" linkIndex="9"/>
    <connection from="20" to="5" fromLane="2" toLane="2" tl="A2" linkIndex="10"/>
    <connection from="20" to="7" fromLane="2" toLane="2" tl="A2" linkIndex="11"/>
    <connection from="21" to="16" fromLane="0" toLane="0" tl="B1" linkIndex="0"/>
    <connection from="21" to="17" fromLane="0" toLane="0" tl="B1" linkIndex="1"/>
    <connection from="21" to="17" fromLane="1" toLane="1" tl="B1" linkIndex="2"/>
    <connection from="21" to="17" fromLane="2" toLane="2" tl="B1" linkIndex="3"/>
    <connection from="21" to="19" fromLane="2" toLane="2" tl="B1" linkIndex="4"/>
    <connection from="21" to="18" fromLane="2" toLane="2" tl="B1" linkIndex="5"/>
    <connection from="22" to="27" fromLane="0" toLane="0" tl="B3" linkIndex="12"/>
    <connection from="22" to="26" fromLane="0" toLane="0" tl="B3" linkIndex="13"/>
    <connection from="22" to="26" fromLane="1" toLane="1" tl="B3" linkIndex="14"/>
    <connection from="22" to="26" fromLane="2" toLane="2" tl="B3" linkIndex="15"/>
    <connection from="22" to="24" fromLane="2" toLane="2" tl="B3" linkIndex="16"/>
    <connection from="22" to="25" fromLane="2" toLane="2" tl="B3" linkIndex="17"/>
    <connection from="23" to="39" fromLane="0" toLane="0" tl="C2" linkIndex="18"/>
    <connection from="23" to="41" fromLane="0" toLane="0" tl="C2" linkIndex="19"/>
    <connection from="23" to="41" fromLane="1" toLane="1" tl="C2" linkIndex="20"/>
    <connection from="23" to="41" fromLane="2" toLane="2" tl="C2" linkIndex="21"/>
    <connection from="23" to="40" fromLane="2" toLane="2" tl="C2" linkIndex="22"/>
    <connection from="23" to="38" fromLane="2" toLane="2" tl="C2" linkIndex="23"/>
    <connection from="24" to="9" fromLane="0" toLane="0" tl="A3" linkIndex="6"/>
    <connection from="24" to="9" fromLane="1" toLane="1" tl="A3" linkIndex="7"/>
    <connection from="24" to="8" fromLane="2" toLane="1" tl="A3" linkIndex="8"/>
    <connection from="24" to="8" fromLane="2" toLane="2" tl="A3" linkIndex="9"/>
    <connection from="24" to="10" fromLane="2" toLane="2" tl="A3" linkIndex="10"/>
    <connection from="25" to="20" fromLane="0" toLane="0" tl="B2" linkIndex="0"/>
    <connection from="25" to="21" fromLane="0" toLane="0" tl="B2" linkIndex="1"/>
    <connection from="25" to="21" fromLane="1" toLane="1" tl="B2" linkIndex="2"/>
    <connection from="25" to="21" fromLane="2" toLane="2" tl="B2" linkIndex="3"/>
    <connection from="25" to="23" fromLane="2" toLane="2" tl="B2" linkIndex="4"/>
    <connection from="25" to="22" fromLane="2" toLane="2" tl="B2" linkIndex="5"/>
    <connection from="26" to="30" fromLane="0" toLane="0" tl="B4" linkIndex="6"/>
    <connection from="26" to="30" fromLane="1" toLane="1" tl="B4" linkIndex="7"/>
    <connection from="26" to="28" fromLane="2" toLane="1" tl="B4" linkIndex="8"/>
    <connection from="26" to="28" fromLane="2" toLane="2" tl="B4" linkIndex="9"/>
    <connection from="26" to="29" fromLane="2" toLane="2" tl="B4" linkIndex="10"/>
    <connection from="27" to="43" fromLane="0" toLane="0" tl="C3" linkIndex="18"/>
    <connection from="27" to="45" fromLane="0" toLane="0" tl="C3" linkIndex="19"/>
    <connection from="27" to="45" fromLane="1" toLane="1" tl="C3" linkIndex="20"/>
    <connection from="27" to="45" fromLane="2" toLane="2" tl="C3" linkIndex="21"/>
    <connection from="27" to="44" fromLane="2" toLane="2" tl="C3" linkIndex="22"/>
    <connection from="27" to="42" fromLane="2" toLane="2" tl="C3" linkIndex="23"/>
    <connection from="29" to="24" fromLane="0" toLane="0" tl="B3" linkIndex="0"/>
    <connection from="29" to="25" fromLane="0" toLane="0" tl="B3" linkIndex="1"/>
    <connection from="29" to="25" fromLane="1" toLane="1" tl="B3" linkIndex="2"/>
    <connection from="29" to="25" fromLane="2" toLane="2" tl="B3" linkIndex="3"/>
    <connection from="29" to="27" fromLane="2" toLane="2" tl="B3" linkIndex="4"/>
    <connection from="29" to="26" fromLane="2" toLane="2" tl="B3" linkIndex="5"/>
    <connection from="3" to="7" fromLane="0" toLane="0" tl="A2" linkIndex="12"/>
    <connection from="3" to="6" fromLane="0" toLane="0" tl="A2" linkIndex="13"/>
    <connection from="3" to="6" fromLane="1" toLane="1" tl="A2" linkIndex="14"/>
    <connection from="3" to="6" fromLane="2" toLane="2" tl="A2" linkIndex="15"/>
    <connection from="30" to="47" fromLane="0" toLane="0" tl="C4" linkIndex="17"/>
    <connection from="30" to="48" fromLane="0" toLane="0" tl="C4" linkIndex="18"/>
    <connection from="30" to="48" fromLane="1" toLane="1" tl="C4" linkIndex="19"/>
    <connection from="30" to="48" fromLane="2" toLane="2" tl="C4" linkIndex="20"/>
    <connection from="30" to="46" fromLane="2" toLane="2" tl="C4" linkIndex="22"/>
    <connection from="31" to="14" fromLane="0" toLane="0" tl="B0" linkIndex="5"/>
    <connection from="31" to="13" fromLane="0" toLane="0" tl="B0" linkIndex="6"/>
    <connection from="31" to="13" fromLane="1" toLane="1" tl="B0" linkIndex="7"/>
    <connection from="31" to="13" fromLane="2" toLane="2" tl="B0" linkIndex="8"/>
    <connection from="31" to="15" fromLane="2" toLane="2" tl="B0" linkIndex="9"/>
    <connection from="32" to="37" fromLane="0" toLane="0" tl="C1" linkIndex="12"/>
    <connection from="32" to="36" fromLane="0" toLane="0" tl="C1" linkIndex="13"/>
    <connection from="32" to="36" fromLane="1" toLane="1" tl="C1" linkIndex="14"/>
    <connection from="32" to="36" fromLane="2" toLane="2" tl="C1" linkIndex="15"/>
    <connection from="32" to="34" fromLane="2" toLane="2" tl="C1" linkIndex="16"/>
    <connection from="32" to="35" fromLane="2" toLane="2" tl="C1" linkIndex="17"/>
    <connection from="33" to="51" fromLane="0" toLane="0" tl="D0" linkIndex="10"/>
    <connection from="33" to="51" fromLane="1" toLane="1" tl="D0" linkIndex="11"/>
    <connection from="33" to="51" fromLane="2" toLane="2" tl="D0" linkIndex="12"/>
    <connection from="33" to="50" fromLane="2" toLane="1" tl="D0" linkIndex="13"/>
    <connection from="33" to="50" fromLane="2" toLane="2" tl="D0" linkIndex="14"/>
    <connection from="33" to="49" fromLane="2" toLane="2" tl="D0" linkIndex="15"/>
    <connection from="34" to="18" fromLane="0" toLane="0" tl="B1" linkIndex="6"/>
    <connection from="34" to="16" fromLane="0" toLane="0" tl="B1" linkIndex="7"/>
    <connection from="34" to="16" fromLane="1" toLane="1" tl="B1" linkIndex="8"/>
    <connection from="34" to="16" fromLane="2" toLane="2" tl="B1" linkIndex="9"/>
    <connection from="34" to="17" fromLane="2" toLane="2" tl="B1" linkIndex="10"/>
    <connection from="34" to="19" fromLane="2" toLane="2" tl="B1" linkIndex="11"/>
    <connection from="35" to="91" fromLane="0" toLane="0" tl="C0" linkIndex="1"/>
    <connection from="35" to="91" fromLane="1" toLane="1" tl="C0" linkIndex="2"/>
    <connection from="35" to="91" fromLane="2" toLane="2" tl="C0" linkIndex="3"/>
    <connection from="35" to="33" fromLane="2" toLane="2" tl="C0" linkIndex="4"/>
    <connection from="35" to="32" fromLane="2" toLane="2" tl="C0" linkIndex="5"/>
    <connection from="36" to="41" fromLane="0" toLane="0" tl="C2" linkIndex="12"/>
    <connection from="36" to="40" fromLane="0" toLane="0" tl="C2" linkIndex="13"/>
    <connection from="36" to="40" fromLane="1" toLane="1" tl="C2" linkIndex="14"/>
    <connection from="36" to="40" fromLane="2" toLane="2" tl="C2" linkIndex="15"/>
    <connection from="36" to="38" fromLane="2" toLane="2" tl="C2" linkIndex="16"/>
    <connection from="36" to="39" fromLane="2" toLane="2" tl="C2" linkIndex="17"/>
    <connection from="37" to="53" fromLane="0" toLane="0" tl="D1" linkIndex="18"/>
    <connection from="37" to="55" fromLane="0" toLane="0" tl="D1" linkIndex="19"/>
    <connection from="37" to="55" fromLane="1" toLane="1" tl="D1" linkIndex="20"/>
    <connection from="37" to="55" fromLane="2" toLane="2" tl="D1" linkIndex="21"/>
    <connection from="37" to="54" fromLane="2" toLane="2" tl="D1" linkIndex="22"/>
    <connection from="37" to="52" fromLane="2" toLane="2" tl="D1" linkIndex="23"/>
    <connection from="38" to="22" fromLane="0" toLane="0" tl="B2" linkIndex="6"/>
    <connection from="38" to="20" fromLane="0" toLane="0" tl="B2" linkIndex="7"/>
    <connection from="38" to="20" fromLane="1" toLane="1" tl="B2" linkIndex="8"/>
    <connection from="38" to="20" fromLane="2" toLane="2" tl="B2" linkIndex="9"/>
    <connection from="38" to="21" fromLane="2" toLane="2" tl="B2" linkIndex="10"/>
    <connection from="38" to="23" fromLane="2" toLane="2" tl="B2" linkIndex="11"/>
    <connection from="39" to="34" fromLane="0" toLane="0" tl="C1" linkIndex="0"/>
    <connection from="39" to="35" fromLane="0" toLane="0" tl="C1" linkIndex="1"/>
    <connection from="39" to="35" fromLane="1" toLane="1" tl="C1" linkIndex="2"/>
    <connection from="39" to="35" fromLane="2" toLane="2" tl="C1" linkIndex="3"/>
    <connection from="39" to="37" fromLane="2" toLane="2" tl="C1" linkIndex="4"/>
    <connection from="39" to="36" fromLane="2" toLane="2" tl="C1" linkIndex="5"/>
    <connection from="4" to="17" fromLane="0" toLane="0" tl="B1" linkIndex="18"/>
    <connection from="4" to="19" fromLane="0" toLane="0" tl="B1" linkIndex="19"/>
    <connection from="4" to="19" fromLane="1" toLane="1" tl="B1" linkIndex="20"/>
    <connection from="4" to="19" fromLane="2" toLane="2" tl="B1" linkIndex="21"/>
    <connection from="4" to="18" fromLane="2" toLane="2" tl="B1" linkIndex="22"/>
    <connection from="4" to="16" fromLane="2" toLane="2" tl="B1" linkIndex="23"/>
    <connection from="40" to="45" fromLane="0" toLane="0" tl="C3" linkIndex="12"/>
    <connection from="40" to="44" fromLane="0" toLane="0" tl="C3" linkIndex="13"/>
    <connection from="40" to="44" fromLane="1" toLane="1" tl="C3" linkIndex="14"/>
    <connection from="40" to="44" fromLane="2" toLane="2" tl="C3" linkIndex="15"/>
    <connection from="40" to="42" fromLane="2" toLane="2" tl="C3" linkIndex="16"/>
    <connection from="40" to="43" fromLane="2" toLane="2" tl="C3" linkIndex="17"/>
    <connection from="41" to="57" fromLane="0" toLane="0" tl="D2" linkIndex="18"/>
    <connection from="41" to="59" fromLane="0" toLane="0" tl="D2" linkIndex="19"/>
    <connection from="41" to="59" fromLane="1" toLane="1" tl="D2" linkIndex="20"/>
    <connection from="41" to="59" fromLane="2" toLane="2" tl="D2" linkIndex="21"/>
    <connection from="41" to="58" fromLane="2" toLane="2" tl="D2" linkIndex="22"/>
    <connection from="41" to="56" fromLane="2" toLane="2" tl="D2" linkIndex="23"/>
    <connection from="42" to="26" fromLane="0" toLane="0" tl="B3" linkIndex="6"/>
    <connection from="42" to="24" fromLane="0" toLane="0" tl="B3" linkIndex="7"/>
    <connection from="42" to="24" fromLane="1" toLane="1" tl="B3" linkIndex="8"/>
    <connection from="42" to="24" fromLane="2" toLane="2" tl="B3" linkIndex="9"/>
    <connection from="42" to="25" fromLane="2" toLane="2" tl="B3" linkIndex="10"/>
    <connection from="42" to="27" fromLane="2" toLane="2" tl="B3" linkIndex="11"/>
    <connection from="43" to="38" fromLane="0" toLane="0" tl="C2" linkIndex="0"/>
    <connection from="43" to="39" fromLane="0" toLane="0" tl="C2" linkIndex="1"/>
    <connection from="43" to="39" fromLane="1" toLane="1" tl="C2" linkIndex="2"/>
    <connection from="43" to="39" fromLane="2" toLane="2" tl="C2" linkIndex="3"/>
    <connection from="43" to="41" fromLane="2" toLane="2" tl="C2" linkIndex="4"/>
    <connection from="43" to="40" fromLane="2" toLane="2" tl="C2" linkIndex="5"/>
    <connection from="44" to="48" fromLane="0" toLane="0" tl="C4" linkIndex="11"/>
    <connection from="44" to="85" fromLane="0" toLane="0" tl="C4" linkIndex="12"/>
    <connection from="44" to="85" fromLane="1" toLane="1" tl="C4" linkIndex="13"/>
    <connection from="44" to="85" fromLane="2" toLane="2" tl="C4" linkIndex="14"/>
    <connection from="44" to="46" fromLane="2" toLane="2" tl="C4" linkIndex="15"/>
    <connection from="44" to="47" fromLane="2" toLane="2" tl="C4" linkIndex="16"/>
    <connection from="45" to="61" fromLane="0" toLane="0" tl="D3" linkIndex="18"/>
    <connection from="45" to="63" fromLane="0" toLane="0" tl="D3" linkIndex="19"/>
    <connection from="45" to="63" fromLane="1" toLane="1" tl="D3" linkIndex="20"/>
    <connection from="45" to="63" fromLane="2" toLane="2" tl="D3" linkIndex="21"/>
    <connection from="45" to="62" fromLane="2" toLane="2" tl="D3" linkIndex="22"/>
    <connection from="45" to="60" fromLane="2" toLane="2" tl="D3" linkIndex="23"/>
    <connection from="46" to="28" fromLane="0" toLane="0" tl="B4" linkIndex="0"/>
    <connection from="46" to="28" fromLane="1" toLane="1" tl="B4" linkIndex="1"/>
    <connection from="46" to="28" fromLane="2" toLane="2" tl="B4" linkIndex="2"/>
    <connection from="46" to="29" fromLane="2" toLane="1" tl="B4" linkIndex="3"/>
    <connection from="46" to="29" fromLane="2" toLane="2" tl="B4" linkIndex="4"/>
    <connection from="46" to="30" fromLane="2" toLane="2" tl="B4" linkIndex="5"/>
    <connection from="47" to="42" fromLane="0" toLane="0" tl="C3" linkIndex="0"/>
    <connection from="47" to="43" fromLane="0" toLane="0" tl="C3" linkIndex="1"/>
    <connection from="47" to="43" fromLane="1" toLane="1" tl="C3" linkIndex="2"/>
    <connection from="47" to="43" fromLane="2" toLane="2" tl="C3" linkIndex="3"/>
    <connection from="47" to="45" fromLane="2" toLane="2" tl="C3" linkIndex="4"/>
    <connection from="47" to="44" fromLane="2" toLane="2" tl="C3" linkIndex="5"/>
    <connection from="48" to="65" fromLane="0" toLane="0" tl="D4" linkIndex="11"/>
    <connection from="48" to="66" fromLane="0" toLane="0" tl="D4" linkIndex="12"/>
    <connection from="48" to="66" fromLane="1" toLane="1" tl="D4" linkIndex="13"/>
    <connection from="48" to="66" fromLane="2" toLane="2" tl="D4" linkIndex="14"/>
    <connection from="48" to="64" fromLane="2" toLane="2" tl="D4" linkIndex="15"/>
    <connection from="49" to="32" fromLane="0" toLane="0" tl="C0" linkIndex="6"/>
    <connection from="49" to="31" fromLane="0" toLane="0" tl="C0" linkIndex="7"/>
    <connection from="49" to="31" fromLane="1" toLane="1" tl="C0" linkIndex="8"/>
    <connection from="49" to="31" fromLane="2" toLane="2" tl="C0" linkIndex="9"/>
    <connection from="49" to="33" fromLane="2" toLane="2" tl="C0" linkIndex="10"/>
    <connection from="5" to="2" fromLane="0" toLane="0" tl="A1" linkIndex="0"/>
    <connection from="5" to="2" fromLane="1" toLane="1" tl="A1" linkIndex="1"/>
    <connection from="5" to="2" fromLane="2" toLane="2" tl="A1" linkIndex="2"/>
    <connection from="5" to="4" fromLane="2" toLane="1" tl="A1" linkIndex="3"/>
    <connection from="5" to="4" fromLane="2" toLane="2" tl="A1" linkIndex="4"/>
    <connection from="5" to="3" fromLane="2" toLane="2" tl="A1" linkIndex="5"/>
    <connection from="50" to="55" fromLane="0" toLane="0" tl="D1" linkIndex="12"/>
    <connection from="50" to="54" fromLane="0" toLane="0" tl="D1" linkIndex="13"/>
    <connection from="50" to="54" fromLane="1" toLane="1" tl="D1" linkIndex="14"/>
    <connection from="50" to="54" fromLane="2" toLane="2" tl="D1" linkIndex="15"/>
    <connection from="50" to="52" fromLane="2" toLane="2" tl="D1" linkIndex="16"/>
    <connection from="50" to="53" fromLane="2" toLane="2" tl="D1" linkIndex="17"/>