<?xml version="1.0" encoding="UTF-8"?>

<!-- generated on 12/07/20 10:13:03 by Eclipse SUMO netedit Version 1.7.0
<configuration xmlns:xsi="http://www.w3.org/2001/XMLSchema-instance" xsi:noNamespaceSchemaLocation="http://sumo.dlr.de/xsd/netconvertConfiguration.xsd">

    <input>
        <sumo-net-file value="E:\StevenSU\OneDrive - City University of Hong Kong\Research in CityU\Code\SUMO_MFD\Bilevel_3.0\network\GridBuffer.net.xml"/>
    </input>

    <output>
        <output-file value="E:\StevenSU\OneDrive - City University of Hong Kong\Research in CityU\Code\SUMO_MFD\Bilevel_3.0\network\GridBuffer.net.xml"/>
    </output>

    <processing>
        <geometry.min-radius.fix.railways value="false"/>
        <geometry.max-grade.fix value="false"/>
        <offset.disable-normalization value="true"/>
        <lefthand value="false"/>
    </processing>

    <junctions>
        <no-turnarounds value="true"/>
        <junctions.corner-detail value="5"/>
        <junctions.limit-turn-speed value="5.5"/>
        <rectangular-lane-cut value="false"/>
    </junctions>

    <pedestrian>
        <walkingareas value="false"/>
    </pedestrian>

    <netedit>
        <additional-files value="E:\StevenSU\OneDrive - City University of Hong Kong\Research in CityU\Code\SUMO_MFD\Bilevel_3.0\network\GridBuffer.add.xml"/>
    </netedit>

    <report>
        <aggregate-warnings value="5"/>
    </report>

</configuration>
-->
<additional xmlns:xsi="http://www.w3.org/2001/XMLSchema-instance" xsi:noNamespaceSchemaLocation="http://sumo.dlr.de/xsd/additional_file.xsd">
	<e1Detector id="100000_in" lane="1000_0" pos="1" freq="50.00" file="1.xml"/>
	<e1Detector id="100000_out" lane="1000_0" pos="472.2" freq="50.00" file="1.xml"/>
	<e1Detector id="100001_in" lane="1000_1" pos="1" freq="50.00" file="1.xml"/>
	<e1Detector id="100001_out" lane="1000_1" pos="472.2" freq="50.00" file="1.xml"/>
	<e1Detector id="100002_in" lane="1000_2" pos="1" freq="50.00" file="1.xml"/>
	<e1Detector id="100002_out" lane="1000_2" pos="472.2" freq="50.00" file="1.xml"/>
	<e1Detector id="100100_in" lane="1001_0" pos="1" freq="50.00" file="1.xml"/>
	<e1Detector id="100100_out" lane="1001_0" pos="472.2" freq="50.00" file="1.xml"/>
	<e1Detector id="100101_in" lane="1001_1" pos="1" freq="50.00" file="1.xml"/>
	<e1Detector id="100101_out" lane="1001_1" pos="472.2" freq="50.00" file="1.xml"/>
	<e1Detector id="100102_in" lane="1001_2" pos="1" freq="50.00" file="1.xml"/>
	<e1Detector id="100102_out" lane="1001_2" pos="472.2" freq="50.00" file="1.xml"/>
	<e1Detector id="100200_in" lane="1002_0" pos="1" freq="50.00" file="1.xml"/>
	<e1Detector id="100200_out" lane="1002_0" pos="472.2" freq="50.00" file="1.xml"/>
	<e1Detector id="100201_in" lane="1002_1" pos="1" freq="50.00" file="1.xml"/>
	<e1Detector id="100201_out" lane="1002_1" pos="472.2" freq="50.00" file="1.xml"/>
	<e1Detector id="100202_in" lane="1002_2" pos="1" freq="50.00" file="1.xml"/>
	<e1Detector id="100202_out" lane="1002_2" pos="472.2" freq="50.00" file="1.xml"/>
	<e1Detector id="100300_in" lane="1003_0" pos="1" freq="50.00" file="1.xml"/>
	<e1Detector id="100300_out" lane="1003_0" pos="472.2" freq="50.00" file="1.xml"/>
	<e1Detector id="100301_in" lane="1003_1" pos="1" freq="50.00" file="1.xml"/>
	<e1Detector id="100301_out" lane="1003_1" pos="472.2" freq="50.00" file="1.xml"/>
	<e1Detector id="100302_in" lane="1003_2" pos="1" freq="50.00" file="1.xml"/>
	<e1Detector id="100302_out" lane="1003_2" pos="472.2" freq="50.00" file="1.xml"/>
	<e1Detector id="100400_in" lane="1004_0" pos="1" freq="50.00" file="1.xml"/>
	<e1Detector id="100400_out" lane="1004_0" pos="472.2" freq="50.00" file="1.xml"/>
	<e1Detector id="100401_in" lane="1004_1" pos="1" freq="50.00" file="1.xml"/>
	<e1Detector id="100401_out" lane="1004_1" pos="472.2" freq="50.00" file="1.xml"/>
	<e1Detector id="100402_in" lane="1004_2" pos="1" freq="50.00" file="1.xml"/>
	<e1Detector id="100402_out" lane="1004_2" pos="472.2" freq="50.00" file="1.xml"/>
	<e1Detector id="100500_in" lane="1005_0" pos="1" freq="50.00" file="1.xml"/>
	<e1Detector id="100500_out" lane="1005_0" pos="472.2" freq="50.00" file="1.xml"/>
	<e1Detector id="100501_in" lane="1005_1" pos="1" freq="50.00" file="1.xml"/>
	<e1Detector id="100501_out" lane="1005_1" pos="472.2" freq="50.00" file="1.xml"/>
	<e1Detector id="100502_in" lane="1005_2" pos="1" freq="50.00" file="1.xml"/>
	<e1Detector id="100502_out" lane="1005_2" pos="472.2" freq="50.00" file="1.xml"/>
	<e1Detector id="100600_in" lane="1006_0" pos="1" freq="50.00" file="1.xml"/>
	<e1Detector id="100600_out" lane="1006_0" pos="472.2" freq="50.00" file="1.xml"/>
	<e1Detector id="100601_in" lane="1006_1" pos="1" freq="50.00" file="1.xml"/>
	<e1Detector id="100601_out" lane="1006_1" pos="472.2" freq="50.00" file="1.xml"/>
	<e1Detector id="100602_in" lane="1006_2" pos="1" freq="50.00" file="1.xml"/>
	<e1Detector id="100602_out" lane="1006_2" pos="472.2" freq="50.00" file="1.xml"/>
	<e1Detector id="100700_in" lane="1007_0" pos="1" freq="50.00" file="1.xml"/>
	<e1Detector id="100700_out" lane="1007_0" pos="472.2" freq="50.00" file="1.xml"/>
	<e1Detector id="100701_in" lane="1007_1" pos="1" freq="50.00" file="1.xml"/>
	<e1Detector id="100701_out" lane="1007_1" pos="472.2" freq="50.00" file="1.xml"/>
	<e1Detector id="100702_in" lane="1007_2" pos="1" freq="50.00" file="1.xml"/>
	<e1Detector id="100702_out" lane="1007_2" pos="472.2" freq="50.00" file="1.xml"/>
	<e1Detector id="100800_in" lane="1008_0" pos="1" freq="50.00" file="1.xml"/>
	<e1Detector id="100800_out" lane="1008_0" pos="472.2" freq="50.00" file="1.xml"/>
	<e1Detector id="100801_in" lane="1008_1" pos="1" freq="50.00" file="1.xml"/>
	<e1Detector id="100801_out" lane="1008_1" pos="472.2" freq="50.00" file="1.xml"/>
	<e1Detector id="100802_in" lane="1008_2" pos="1" freq="50.00" file="1.xml"/>
	<e1Detector id="100802_out" lane="1008_2" pos="472.2" freq="50.00" file="1.xml"/>
	<e1Detector id="100900_in" lane="1009_0" pos="1" freq="50.00" file="1.xml"/>
	<e1Detector id="100900_out" lane="1009_0" pos="472.2" freq="50.00" file="1.xml"/>
	<e1Detector id="100901_in" lane="1009_1" pos="1" freq="50.00" file="1.xml"/>
	<e1Detector id="100901_out" lane="1009_1" pos="472.2" freq="50.00" file="1.xml"/>
	<e1Detector id="100902_in" lane="1009_2" pos="1" freq="50.00" file="1.xml"/>
	<e1Detector id="100902_out" lane="1009_2" pos="472.2" freq="50.00" file="1.xml"/>
	<e1Detector id="101000_in" lane="1010_0" pos="1" freq="50.00" file="1.xml"/>
	<e1Detector id="101000_out" lane="1010_0" pos="472.2" freq="50.00" file="1.xml"/>
	<e1Detector id="101001_in" lane="1010_1" pos="1" freq="50.00" file="1.xml"/>
	<e1Detector id="101001_out" lane="1010_1" pos="472.2" freq="50.00" file="1.xml"/>
	<e1Detector id="101002_in" lane="1010_2" pos="1" freq="50.00" file="1.xml"/>
	<e1Detector id="101002_out" lane="1010_2" pos="472.2" freq="50.00" file="1.xml"/>
	<e1Detector id="101100_in" lane="1011_0" pos="1" freq="50.00" file="1.xml"/>
	<e1Detector id="101100_out" lane="1011_0" pos="472.2" freq="50.00" file="1.xml"/>
	<e1Detector id="101101_in" lane="1011_1" pos="1" freq="50.00" file="1.xml"/>
	<e1Detector id="101101_out" lane="1011_1" pos="472.2" freq="50.00" file="1.xml"/>
	<e1Detector id="101102_in" lane="1011_2" pos="1" freq="50.00" file="1.xml"/>
	<e1Detector id="101102_out" lane="1011_2" pos="472.2" freq="50.00" file="1.xml"/>
	<e1Detector id="101200_in" lane="1012_0" pos="1" freq="50.00" file="1.xml"/>
	<e1Detector id="101200_out" lane="1012_0" pos="472.2" freq="50.00" file="1.xml"/>
	<e1Detector id="101201_in" lane="1012_1" pos="1" freq="50.00" file="1.xml"/>
	<e1Detector id="101201_out" lane="1012_1" pos="472.2" freq="50.00" file="1.xml"/>
	<e1Detector id="101202_in" lane="1012_2" pos="1" freq="50.00" file="1.xml"/>
	<e1Detector id="101202_out" lane="1012_2" pos="472.2" freq="50.00" file="1.xml"/>
	<e1Detector id="101300_in" lane="1013_0" pos="1" freq="50.00" file="1.xml"/>
	<e1Detector id="101300_out" lane="1013_0" pos="472.2" freq="50.00" file="1.xml"/>
	<e1Detector id="101301_in" lane="1013_1" pos="1" freq="50.00" file="1.xml"/>
	<e1Detector id="101301_out" lane="1013_1" pos="472.2" freq="50.00" file="1.xml"/>
	<e1Detector id="101302_in" lane="1013_2" pos="1" freq="50.00" file="1.xml"/>
	<e1Detector id="101302_out" lane="1013_2" pos="472.2" freq="50.00" file="1.xml"/>
	<e1Detector id="101400_in" lane="1014_0" pos="1" freq="50.00" file="1.xml"/>
	<e1Detector id="101400_out" lane="1014_0" pos="472.2" freq="50.00" file="1.xml"/>
	<e1Detector id="101401_in" lane="1014_1" pos="1" freq="50.00" file="1.xml"/>
	<e1Detector id="101401_out" lane="1014_1" pos="472.2" freq="50.00" file="1.xml"/>
	<e1Detector id="101402_in" lane="1014_2" pos="1" freq="50.00" file="1.xml"/>
	<e1Detector id="101402_out" lane="1014_2" pos="472.2" freq="50.00" file="1.xml"/>
	<e1Detector id="101500_in" lane="1015_0" pos="1" freq="50.00" file="1.xml"/>
	<e1Detector id="101500_out" lane="1015_0" pos="472.2" freq="50.00" file="1.xml"/>
	<e1Detector id="101501_in" lane="1015_1" pos="1" freq="50.00" file="1.xml"/>
	<e1Detector id="101501_out" lane="1015_1" pos="472.2" freq="50.00" file="1.xml"/>
	<e1Detector id="101502_in" lane="1015_2" pos="1" freq="50.00" file="1.xml"/>
	<e1Detector id="101502_out" lane="1015_2" pos="472.2" freq="50.00" file="1.xml"/>
	<e1Detector id="101600_in" lane="1016_0" pos="1" freq="50.00" file="1.xml"/>
	<e1Detector id="101600_out" lane="1016_0" pos="472.2" freq="50.00" file="1.xml"/>
	<e1Detector id="101601_in" lane="1016_1" pos="1" freq="50.00" file="1.xml"/>
	<e1Detector id="101601_out" lane="1016_1" pos="472.2" freq="50.00" file="1.xml"/>
	<e1Detector id="101602_in" lane="1016_2" pos="1" freq="50.00" file="1.xml"/>
	<e1Detector id="101602_out" lane="1016_2" pos="472.2" freq="50.00" file="1.xml"/>
	<e1Detector id="101700_in" lane="1017_0" pos="1" freq="50.00" file="1.xml"/>
	<e1Detector id="101700_out" lane="1017_0" pos="472.2" freq="50.00" file="1.xml"/>
	<e1Detector id="101701_in" lane="1017_1" pos="1" freq="50.00" file="1.xml"/>
	<e1Detector id="101701_out" lane="1017_1" pos="472.2" freq="50.00" file="1.xml"/>
	<e1Detector id="101702_in" lane="1017_2" pos="1" freq="50.00" file="1.xml"/>
	<e1Detector id="101702_out" lane="1017_2" pos="472.2" freq="50.00" file="1.xml"/>
	<e1Detector id="101800_in" lane="1018_0" pos="1" freq="50.00" file="1.xml"/>
	<e1Detector id="101800_out" lane="1018_0" pos="472.2" freq="50.00" file="1.xml"/>
	<e1Detector id="101801_in" lane="1018_1" pos="1" freq="50.00" file="1.xml"/>
	<e1Detector id="101801_out" lane="1018_1" pos="472.2" freq="50.00" file="1.xml"/>
	<e1Detector id="101802_in" lane="1018_2" pos="1" freq="50.00" file="1.xml"/>
	<e1Detector id="101802_out" lane="1018_2" pos="472.2" freq="50.00" file="1.xml"/>
	<e1Detector id="101900_in" lane="1019_0" pos="1" freq="50.00" file="1.xml"/>
	<e1Detector id="101900_out" lane="1019_0" pos="472.2" freq="50.00" file="1.xml"/>
	<e1Detector id="101901_in" lane="1019_1" pos="1" freq="50.00" file="1.xml"/>
	<e1Detector id="101901_out" lane="1019_1" pos="472.2" freq="50.00" file="1.xml"/>
	<e1Detector id="101902_in" lane="1019_2" pos="1" freq="50.00" file="1.xml"/>
	<e1Detector id="101902_out" lane="1019_2" pos="472.2" freq="50.00" file="1.xml"/>
	<e1Detector id="102000_in" lane="1020_0" pos="1" freq="50.00" file="1.xml"/>
	<e1Detector id="102000_out" lane="1020_0" pos="472.2" freq="50.00" file="1.xml"/>
	<e1Detector id="102001_in" lane="1020_1" pos="1" freq="50.00" file="1.xml"/>
	<e1Detector id="102001_out" lane="1020_1" pos="472.2" freq="50.00" file="1.xml"/>
	<e1Detector id="102002_in" lane="1020_2" pos="1" freq="50.00" file="1.xml"/>
	<e1Detector id="102002_out" lane="1020_2" pos="472.2" freq="50.00" file="1.xml"/>
	<e1Detector id="102100_in" lane="1021_0" pos="1" freq="50.00" file="1.xml"/>
	<e1Detector id="102100_out" lane="1021_0" pos="472.2" freq="50.00" file="1.xml"/>
	<e1Detector id="102101_in" lane="1021_1" pos="1" freq="50.00" file="1.xml"/>
	<e1Detector id="102101_out" lane="1021_1" pos="472.2" freq="50.00" file="1.xml"/>
	<e1Detector id="102102_in" lane="1021_2" pos="1" freq="50.00" file="1.xml"/>
	<e1Detector id="102102_out" lane="1021_2" pos="472.2" freq="50.00" file="1.xml"/>
	<e1Detector id="102200_in" lane="1022_0" pos="1" freq="50.00" file="1.xml"/>
	<e1Detector id="102200_out" lane="1022_0" pos="472.2" freq="50.00" file="1.xml"/>
	<e1Detector id="102201_in" lane="1022_1" pos="1" freq="50.00" file="1.xml"/>
	<e1Detector id="102201_out" lane="1022_1" pos="472.2" freq="50.00" file="1.xml"/>
	<e1Detector id="102202_in" lane="1022_2" pos="1" freq="50.00" file="1.xml"/>
	<e1Detector id="102202_out" lane="1022_2" pos="472.2" freq="50.00" file="1.xml"/>
	<e1Detector id="102300_in" lane="1023_0" pos="1" freq="50.00" file="1.xml"/>
	<e1Detector id="102300_out" lane="1023_0" pos="472.2" freq="50.00" file="1.xml"/>
	<e1Detector id="102301_in" lane="1023_1" pos="1" freq="50.00" file="1.xml"/>
	<e1Detector id="102301_out" lane="1023_1" pos="472.2" freq="50.00" file="1.xml"/>
	<e1Detector id="102302_in" lane="1023_2" pos="1" freq="50.00" file="1.xml"/>
	<e1Detector id="102302_out" lane="1023_2" pos="472.2" freq="50.00" file="1.xml"/>
	<e1Detector id="102400_in" lane="1024_0" pos="1" freq="50.00" file="1.xml"/>
	<e1Detector id="102400_out" lane="1024_0" pos="472.2" freq="50.00" file="1.xml"/>
	<e1Detector id="102401_in" lane="1024_1" pos="1" freq="50.00" file="1.xml"/>
	<e1Detector id="102401_out" lane="1024_1" pos="472.2" freq="50.00" file="1.xml"/>
	<e1Detector id="102402_in" lane="1024_2" pos="1" freq="50.00" file="1.xml"/>
	<e1Detector id="102402_out" lane="1024_2" pos="472.2" freq="50.00" file="1.xml"/>
	<e1Detector id="102500_in" lane="1025_0" pos="1" freq="50.00" file="1.xml"/>
	<e1Detector id="102500_out" lane="1025_0" pos="472.2" freq="50.00" file="1.xml"/>
	<e1Detector id="102501_in" lane="1025_1" pos="1" freq="50.00" file="1.xml"/>
	<e1Detector id="102501_out" lane="1025_1" pos="472.2" freq="50.00" file="1.xml"/>
	<e1Detector id="102502_in" lane="1025_2" pos="1" freq="50.00" file="1.xml"/>
	<e1Detector id="102502_out" lane="1025_2" pos="472.2" freq="50.00" file="1.xml"/>
	<e1Detector id="102600_in" lane="1026_0" pos="1" freq="50.00" file="1.xml"/>
	<e1Detector id="102600_out" lane="1026_0" pos="472.2" freq="50.00" file="1.xml"/>
	<e1Detector id="102601_in" lane="1026_1" pos="1" freq="50.00" file="1.xml"/>
	<e1Detector id="102601_out" lane="1026_1" pos="472.2" freq="50.00" file="1.xml"/>
	<e1Detector id="102602_in" lane="1026_2" pos="1" freq="50.00" file="1.xml"/>
	<e1Detector id="102602_out" lane="1026_2" pos="472.2" freq="50.00" file="1.xml"/>
	<e1Detector id="102700_in" lane="1027_0" pos="1" freq="50.00" file="1.xml"/>
	<e1Detector id="102700_out" lane="1027_0" pos="472.2" freq="50.00" file="1.xml"/>
	<e1Detector id="102701_in" lane="1027_1" pos="1" freq="50.00" file="1.xml"/>
	<e1Detector id="102701_out" lane="1027_1" pos="472.2" freq="50.00" file="1.xml"/>
	<e1Detector id="102702_in" lane="1027_2" pos="1" freq="50.00" file="1.xml"/>
	<e1Detector id="102702_out" lane="1027_2" pos="472.2" freq="50.00" file="1.xml"/>
	<e1Detector id="102800_in" lane="1028_0" pos="1" freq="50.00" file="1.xml"/>
	<e1Detector id="102800_out" lane="1028_0" pos="472.2" freq="50.00" file="1.xml"/>
	<e1Detector id="102801_in" lane="1028_1" pos="1" freq="50.00" file="1.xml"/>
	<e1Detector id="102801_out" lane="1028_1" pos="472.2" freq="50.00" file="1.xml"/>
	<e1Detector id="102802_in" lane="1028_2" pos="1" freq="50.00" file="1.xml"/>
	<e1Detector id="102802_out" lane="1028_2" pos="472.2" freq="50.00" file="1.xml"/>
	<e1Detector id="102900_in" lane="1029_0" pos="1" freq="50.00" file="1.xml"/>
	<e1Detector id="102900_out" lane="1029_0" pos="472.2" freq="50.00" file="1.xml"/>
	<e1Detector id="102901_in" lane="1029_1" pos="1" freq="50.00" file="1.xml"/>
	<e1Detector id="102901_out" lane="1029_1" pos="472.2" freq="50.00" file="1.xml"/>
	<e1Detector id="102902_in" lane="1029_2" pos="1" freq="50.00" file="1.xml"/>
	<e1Detector id="102902_out" lane="1029_2" pos="472.2" freq="50.00" file="1.xml"/>
	<e1Detector id="103000_in" lane="1030_0" pos="1" freq="50.00" file="1.xml"/>
	<e1Detector id="103000_out" lane="1030_0" pos="472.2" freq="50.00" file="1.xml"/>
	<e1Detector id="103001_in" lane="1030_1" pos="1" freq="50.00" file="1.xml"/>
	<e1Detector id="103001_out" lane="1030_1" pos="472.2" freq="50.00" file="1.xml"/>
	<e1Detector id="103002_in" lane="1030_2" pos="1" freq="50.00" file="1.xml"/>
	<e1Detector id="103002_out" lane="1030_2" pos="472.2" freq="50.00" file="1.xml"/>
	<e1Detector id="103100_in" lane="1031_0" pos="1" freq="50.00" file="1.xml"/>
	<e1Detector id="103100_out" lane="1031_0" pos="472.2" freq="50.00" file="1.xml"/>
	<e1Detector id="103101_in" lane="1031_1" pos="1" freq="50.00" file="1.xml"/>
	<e1Detector id="103101_out" lane="1031_1" pos="472.2" freq="50.00" file="1.xml"/>
	<e1Detector id="103102_in" lane="1031_2" pos="1" freq="50.00" file="1.xml"/>
	<e1Detector id="103102_out" lane="1031_2" pos="472.2" freq="50.00" file="1.xml"/>
	<e1Detector id="103200_in" lane="1032_0" pos="1" freq="50.00" file="1.xml"/>
	<e1Detector id="103200_out" lane="1032_0" pos="472.2" freq="50.00" file="1.xml"/>
	<e1Detector id="103201_in" lane="1032_1" pos="1" freq="50.00" file="1.xml"/>
	<e1Detector id="103201_out" lane="1032_1" pos="472.2" freq="50.00" file="1.xml"/>
	<e1Detector id="103202_in" lane="1032_2" pos="1" freq="50.00" file="1.xml"/>
	<e1Detector id="103202_out" lane="1032_2" pos="472.2" freq="50.00" file="1.xml"/>
	<e1Detector id="103300_in" lane="1033_0" pos="1" freq="50.00" file="1.xml"/>
	<e1Detector id="103300_out" lane="1033_0" pos="472.2" freq="50.00" file="1.xml"/>
	<e1Detector id="103301_in" lane="1033_1" pos="1" freq="50.00" file="1.xml"/>
	<e1Detector id="103301_out" lane="1033_1" pos="472.2" freq="50.00" file="1.xml"/>
	<e1Detector id="103302_in" lane="1033_2" pos="1" freq="50.00" file="1.xml"/>
	<e1Detector id="103302_out" lane="1033_2" pos="472.2" freq="50.00" file="1.xml"/>
	<e1Detector id="103400_in" lane="1034_0" pos="1" freq="50.00" file="1.xml"/>
	<e1Detector id="103400_out" lane="1034_0" pos="472.2" freq="50.00" file="1.xml"/>
	<e1Detector id="103401_in" lane="1034_1" pos="1" freq="50.00" file="1.xml"/>
	<e1Detector id="103401_out" lane="1034_1" pos="472.2" freq="50.00" file="1.xml"/>
	<e1Detector id="103402_in" lane="1034_2" pos="1" freq="50.00" file="1.xml"/>
	<e1Detector id="103402_out" lane="1034_2" pos="472.2" freq="50.00" file="1.xml"/>
	<e1Detector id="103500_in" lane="1035_0" pos="1" freq="50.00" file="1.xml"/>
	<e1Detector id="103500_out" lane="1035_0" pos="472.2" freq="50.00" file="1.xml"/>
	<e1Detector id="103501_in" lane="1035_1" pos="1" freq="50.00" file="1.xml"/>
	<e1Detector id="103501_out" lane="1035_1" pos="472.2" freq="50.00" file="1.xml"/>
	<e1Detector id="103502_in" lane="1035_2" pos="1" freq="50.00" file="1.xml"/>
	<e1Detector id="103502_out" lane="1035_2" pos="472.2" freq="50.00" file="1.xml"/>
	<e1Detector id="103600_in" lane="1036_0" pos="1" freq="50.00" file="1.xml"/>
	<e1Detector id="103600_out" lane="1036_0" pos="472.2" freq="50.00" file="1.xml"/>
	<e1Detector id="103601_in" lane="1036_1" pos="1" freq="50.00" file="1.xml"/>
	<e1Detector id="103601_out" lane="1036_1" pos="472.2" freq="50.00" file="1.xml"/>
	<e1Detector id="103602_in" lane="1036_2" pos="1" freq="50.00" file="1.xml"/>
	<e1Detector id="103602_out" lane="1036_2" pos="472.2" freq="50.00" file="1.xml"/>
	<e1Detector id="103700_in" lane="1037_0" pos="1" freq="50.00" file="1.xml"/>
	<e1Detector id="103700_out" lane="1037_0" pos="472.2" freq="50.00" file="1.xml"/>
	<e1Detector id="103701_in" lane="1037_1" pos="1" freq="50.00" file="1.xml"/>
	<e1Detector id="103701_out" lane="1037_1" pos="472.2" freq="50.00" file="1.xml"/>
	<e1Detector id="103702_in" lane="1037_2" pos="1" freq="50.00" file="1.xml"/>
	<e1Detector id="103702_out" lane="1037_2" pos="472.2" freq="50.00" file="1.xml"/>
	<e1Detector id="103800_in" lane="1038_0" pos="1" freq="50.00" file="1.xml"/>
	<e1Detector id="103800_out" lane="1038_0" pos="472.2" freq="50.00" file="1.xml"/>
	<e1Detector id="103801_in" lane="1038_1" pos="1" freq="50.00" file="1.xml"/>
	<e1Detector id="103801_out" lane="1038_1" pos="472.2" freq="50.00" file="1.xml"/>
	<e1Detector id="103802_in" lane="1038_2" pos="1" freq="50.00" file="1.xml"/>
	<e1Detector id="103802_out" lane="1038_2" pos="472.2" freq="50.00" file="1.xml"/>
	<e1Detector id="103900_in" lane="1039_0" pos="1" freq="50.00" file="1.xml"/>
	<e1Detector id="103900_out" lane="1039_0" pos="472.2" freq="50.00" file="1.xml"/>
	<e1Detector id="103901_in" lane="1039_1" pos="1" freq="50.00" file="1.xml"/>
	<e1Detector id="103901_out" lane="1039_1" pos="472.2" freq="50.00" file="1.xml"/>
	<e1Detector id="103902_in" lane="1039_2" pos="1" freq="50.00" file="1.xml"/>
	<e1Detector id="103902_out" lane="1039_2" pos="472.2" freq="50.00" file="1.xml"/>
	<e1Detector id="104000_in" lane="1040_0" pos="1" freq="50.00" file="1.xml"/>
	<e1Detector id="104000_out" lane="1040_0" pos="472.2" freq="50.00" file="1.xml"/>
	<e1Detector id="104001_in" lane="1040_1" pos="1" freq="50.00" file="1.xml"/>
	<e1Detector id="104001_out" lane="1040_1" pos="472.2" freq="50.00" file="1.xml"/>
	<e1Detector id="104002_in" lane="1040_2" pos="1" freq="50.00" file="1.xml"/>
	<e1Detector id="104002_out" lane="1040_2" pos="472.2" freq="50.00" file="1.xml"/>
	<e1Detector id="104100_in" lane="1041_0" pos="1" freq="50.00" file="1.xml"/>
	<e1Detector id="104100_out" lane="1041_0" pos="472.2" freq="50.00" file="1.xml"/>
	<e1Detector id="104101_in" lane="1041_1" pos="1" freq="50.00" file="1.xml"/>
	<e1Detector id="104101_out" lane="1041_1" pos="472.2" freq="50.00" file="1.xml"/>
	<e1Detector id="104102_in" lane="1041_2" pos="1" freq="50.00" file="1.xml"/>
	<e1Detector id="104102_out" lane="1041_2" pos="472.2" freq="50.00" file="1.xml"/>
	<e1Detector id="104200_in" lane="1042_0" pos="1" freq="50.00" file="1.xml"/>
	<e1Detector id="104200_out" lane="1042_0" pos="472.2" freq="50.00" file="1.xml"/>
	<e1Detector id="104201_in" lane="1042_1" pos="1" freq="50.00" file="1.xml"/>
	<e1Detector id="104201_out" lane="1042_1" pos="472.2" freq="50.00" file="1.xml"/>
	<e1Detector id="104202_in" lane="1042_2" pos="1" freq="50.00" file="1.xml"/>
	<e1Detector id="104202_out" lane="1042_2" pos="472.2" freq="50.00" file="1.xml"/>
	<e1Detector id="104300_in" lane="1043_0" pos="1" freq="50.00" file="1.xml"/>
	<e1Detector id="104300_out" lane="1043_0" pos="472.2" freq="50.00" file="1.xml"/>
	<e1Detector id="104301_in" lane="1043_1" pos="1" freq="50.00" file="1.xml"/>
	<e1Detector id="104301_out" lane="1043_1" pos="472.2" freq="50.00" file="1.xml"/>
	<e1Detector id="104302_in" lane="1043_2" pos="1" freq="50.00" file="1.xml"/>
	<e1Detector id="104302_out" lane="1043_2" pos="472.2" freq="50.00" file="1.xml"/>
	<e1Detector id="104400_in" lane="1044_0" pos="1" freq="50.00" file="1.xml"/>
	<e1Detector id="104400_out" lane="1044_0" pos="472.2" freq="50.00" file="1.xml"/>
	<e1Detector id="104401_in" lane="1044_1" pos="1" freq="50.00" file="1.xml"/>
	<e1Detector id="104401_out" lane="1044_1" pos="472.2" freq="50.00" file="1.xml"/>
	<e1Detector id="104402_in" lane="1044_2" pos="1" freq="50.00" file="1.xml"/>
	<e1Detector id="104402_out" lane="1044_2" pos="472.2" freq="50.00" file="1.xml"/>
	<e1Detector id="104500_in" lane="1045_0" pos="1" freq="50.00" file="1.xml"/>
	<e1Detector id="104500_out" lane="1045_0" pos="472.2" freq="50.00" file="1.xml"/>
	<e1Detector id="104501_in" lane="1045_1" pos="1" freq="50.00" file="1.xml"/>
	<e1Detector id="104501_out" lane="1045_1" pos="472.2" freq="50.00" file="1.xml"/>
	<e1Detector id="104502_in" lane="1045_2" pos="1" freq="50.00" file="1.xml"/>
	<e1Detector id="104502_out" lane="1045_2" pos="472.2" freq="50.00" file="1.xml"/>
	<e1Detector id="104600_in" lane="1046_0" pos="1" freq="50.00" file="1.xml"/>
	<e1Detector id="104600_out" lane="1046_0" pos="472.2" freq="50.00" file="1.xml"/>
	<e1Detector id="104601_in" lane="1046_1" pos="1" freq="50.00" file="1.xml"/>
	<e1Detector id="104601_out" lane="1046_1" pos="472.2" freq="50.00" file="1.xml"/>
	<e1Detector id="104602_in" lane="1046_2" pos="1" freq="50.00" file="1.xml"/>
	<e1Detector id="104602_out" lane="1046_2" pos="472.2" freq="50.00" file="1.xml"/>
	<e1Detector id="104700_in" lane="1047_0" pos="1" freq="50.00" file="1.xml"/>
	<e1Detector id="104700_out" lane="1047_0" pos="472.2" freq="50.00" file="1.xml"/>
	<e1Detector id="104701_in" lane="1047_1" pos="1" freq="50.00" file="1.xml"/>
	<e1Detector id="104701_out" lane="1047_1" pos="472.2" freq="50.00" file="1.xml"/>
	<e1Detector id="104702_in" lane="1047_2" pos="1" freq="50.00" file="1.xml"/>
	<e1Detector id="104702_out" lane="1047_2" pos="472.2" freq="50.00" file="1.xml"/>
	<e1Detector id="104800_in" lane="1048_0" pos="1" freq="50.00" file="1.xml"/>
	<e1Detector id="104800_out" lane="1048_0" pos="472.2" freq="50.00" file="1.xml"/>
	<e1Detector id="104801_in" lane="1048_1" pos="1" freq="50.00" file="1.xml"/>
	<e1Detector id="104801_out" lane="1048_1" pos="472.2" freq="50.00" file="1.xml"/>
	<e1Detector id="104802_in" lane="1048_2" pos="1" freq="50.00" file="1.xml"/>
	<e1Detector id="104802_out" lane="1048_2" pos="472.2" freq="50.00" file="1.xml"/>
	<e1Detector id="104900_in" lane="1049_0" pos="1" freq="50.00" file="1.xml"/>
	<e1Detector id="104900_out" lane="1049_0" pos="472.2" freq="50.00" file="1.xml"/>
	<e1Detector id="104901_in" lane="1049_1" pos="1" freq="50.00" file="1.xml"/>
	<e1Detector id="104901_out" lane="1049_1" pos="472.2" freq="50.00" file="1.xml"/>
	<e1Detector id="104902_in" lane="1049_2" pos="1" freq="50.00" file="1.xml"/>
	<e1Detector id="104902_out" lane="1049_2" pos="472.2" freq="50.00" file="1.xml"/>
	<e1Detector id="105000_in" lane="1050_0" pos="1" freq="50.00" file="1.xml"/>
	<e1Detector id="105000_out" lane="1050_0" pos="472.2" freq="50.00" file="1.xml"/>
	<e1Detector id="105001_in" lane="1050_1" pos="1" freq="50.00" file="1.xml"/>
	<e1Detector id="105001_out" lane="1050_1" pos="472.2" freq="50.00" file="1.xml"/>
	<e1Detector id="105002_in" lane="1050_2" pos="1" freq="50.00" file="1.xml"/>
	<e1Detector id="105002_out" lane="1050_2" pos="472.2" freq="50.00" file="1.xml"/>
	<e1Detector id="105100_in" lane="1051_0" pos="1" freq="50.00" file="1.xml"/>
	<e1Detector id="105100_out" lane="1051_0" pos="472.2" freq="50.00" file="1.xml"/>
	<e1Detector id="105101_in" lane="1051_1" pos="1" freq="50.00" file="1.xml"/>
	<e1Detector id="105101_out" lane="1051_1" pos="472.2" freq="50.00" file="1.xml"/>
	<e1Detector id="105102_in" lane="1051_2" pos="1" freq="50.00" file="1.xml"/>
	<e1Detector id="105102_out" lane="1051_2" pos="472.2" freq="50.00" file="1.xml"/>
	<e1Detector id="105200_in" lane="1052_0" pos="1" freq="50.00" file="1.xml"/>
	<e1Detector id="105200_out" lane="1052_0" pos="472.2" freq="50.00" file="1.xml"/>
	<e1Detector id="105201_in" lane="1052_1" pos="1" freq="50.00" file="1.xml"/>
	<e1Detector id="105201_out" lane="1052_1" pos="472.2" freq="50.00" file="1.xml"/>
	<e1Detector id="105202_in" lane="1052_2" pos="1" freq="50.00" file="1.xml"/>
	<e1Detector id="105202_out" lane="1052_2" pos="472.2" freq="50.00" file="1.xml"/>
	<e1Detector id="105300_in" lane="1053_0" pos="1" freq="50.00" file="1.xml"/>
	<e1Detector id="105300_out" lane="1053_0" pos="472.2" freq="50.00" file="1.xml"/>
	<e1Detector id="105301_in" lane="1053_1" pos="1" freq="50.00" file="1.xml"/>
	<e1Detector id="105301_out" lane="1053_1" pos="472.2" freq="50.00" file="1.xml"/>
	<e1Detector id="105302_in" lane="1053_2" pos="1" freq="50.00" file="1.xml"/>
	<e1Detector id="105302_out" lane="1053_2" pos="472.2" freq="50.00" file="1.xml"/>
	<e1Detector id="105400_in" lane="1054_0" pos="1" freq="50.00" file="1.xml"/>
	<e1Detector id="105400_out" lane="1054_0" pos="472.2" freq="50.00" file="1.xml"/>
	<e1Detector id="105401_in" lane="1054_1" pos="1" freq="50.00" file="1.xml"/>
	<e1Detector id="105401_out" lane="1054_1" pos="472.2" freq="50.00" file="1.xml"/>
	<e1Detector id="105402_in" lane="1054_2" pos="1" freq="50.00" file="1.xml"/>
	<e1Detector id="105402_out" lane="1054_2" pos="472.2" freq="50.00" file="1.xml"/>
	<e1Detector id="105500_in" lane="1055_0" pos="1" freq="50.00" file="1.xml"/>
	<e1Detector id="105500_out" lane="1055_0" pos="472.2" freq="50.00" file="1.xml"/>
	<e1Detector id="105501_in" lane="1055_1" pos="1" freq="50.00" file="1.xml"/>
	<e1Detector id="105501_out" lane="1055_1" pos="472.2" freq="50.00" file="1.xml"/>
	<e1Detector id="105502_in" lane="1055_2" pos="1" freq="50.00" file="1.xml"/>
	<e1Detector id="105502_out" lane="1055_2" pos="472.2" freq="50.00" file="1.xml"/>
	<e1Detector id="105600_in" lane="1056_0" pos="1" freq="50.00" file="1.xml"/>
	<e1Detector id="105600_out" lane="1056_0" pos="472.2" freq="50.00" file="1.xml"/>
	<e1Detector id="105601_in" lane="1056_1" pos="1" freq="50.00" file="1.xml"/>
	<e1Detector id="105601_out" lane="1056_1" pos="472.2" freq="50.00" file="1.xml"/>
	<e1Detector id="105602_in" lane="1056_2" pos="1" freq="50.00" file="1.xml"/>
	<e1Detector id="105602_out" lane="1056_2" pos="472.2" freq="50.00" file="1.xml"/>
	<e1Detector id="105700_in" lane="1057_0" pos="1" freq="50.00" file="1.xml"/>
	<e1Detector id="105700_out" lane="1057_0" pos="472.2" freq="50.00" file="1.xml"/>
	<e1Detector id="105701_in" lane="1057_1" pos="1" freq="50.00" file="1.xml"/>
	<e1Detector id="105701_out" lane="1057_1" pos="472.2" freq="50.00" file="1.xml"/>
	<e1Detector id="105702_in" lane="1057_2" pos="1" freq="50.00" file="1.xml"/>
	<e1Detector id="105702_out" lane="1057_2" pos="472.2" freq="50.00" file="1.xml"/>
	<e1Detector id="105800_in" lane="1058_0" pos="1" freq="50.00" file="1.xml"/>
	<e1Detector id="105800_out" lane="1058_0" pos="472.2" freq="50.00" file="1.xml"/>
	<e1Detector id="105801_in" lane="1058_1" pos="1" freq="50.00" file="1.xml"/>
	<e1Detector id="105801_out" lane="1058_1" pos="472.2" freq="50.00" file="1.xml"/>
	<e1Detector id="105802_in" lane="1058_2" pos="1" freq="50.00" file="1.xml"/>