<?xml version="1.0" encoding="UTF-8"?>

<!-- generated on 2022-05-20 16:23:09 by Eclipse SUMO netedit Version 1.10.0
<configuration xmlns:xsi="http://www.w3.org/2001/XMLSchema-instance" xsi:noNamespaceSchemaLocation="http://sumo.dlr.de/xsd/netconvertConfiguration.xsd">

    <input>
        <sumo-net-file value="D:\OneDrive%20-%20City%20University%20of%20Hong%20Kong\Research%20in%20CityU\Code\SUMO_MFD\Bilevel_Network_3.0\network\Bloomsbury\Bloomsbury.net.xml"/>
    </input>

    <output>
        <output-file value="D:\OneDrive%20-%20City%20University%20of%20Hong%20Kong\Research%20in%20CityU\Code\SUMO_MFD\Bilevel_Network_3.0\network\Bloomsbury\Bloomsbury.net.xml"/>
    </output>

    <processing>
        <geometry.min-radius.fix.railways value="false"/>
        <geometry.max-grade.fix value="false"/>
        <offset.disable-normalization value="true"/>
        <lefthand value="false"/>
    </processing>

    <junctions>
        <no-turnarounds value="true"/>
        <junctions.corner-detail value="5"/>
        <junctions.limit-turn-speed value="5.5"/>
        <rectangular-lane-cut value="false"/>
    </junctions>

    <pedestrian>
        <walkingareas value="false"/>
    </pedestrian>

    <report>
        <aggregate-warnings value="5"/>
    </report>

</configuration>
-->

<net version="1.9" junctionCornerDetail="5" limitTurnSpeed="5.50" xmlns:xsi="http://www.w3.org/2001/XMLSchema-instance" xsi:noNamespaceSchemaLocation="http://sumo.dlr.de/xsd/net_file.xsd">

    <location netOffset="0.00,0.00" convBoundary="-500.00,-500.00,3000.00,4000.00" origBoundary="0.00,0.00,2500.00,3500.00" projParameter="!"/>

    <edge id=":1_0" function="internal">
        <lane id=":1_0_0" index="0" speed="3.65" length="4.67" shape="0.00,501.60 -1.20,500.80 -1.60,500.00 -1.20,499.20 0.00,498.40"/>
    </edge>
    <edge id=":10_0" function="internal">
        <lane id=":10_0_0" index="0" speed="13.89" length="0.10" shape="492.00,1000.00 492.00,1000.00"/>
        <lane id=":10_0_1" index="1" speed="13.89" length="0.10" shape="495.20,1000.00 495.20,1000.00"/>
        <lane id=":10_0_2" index="2" speed="13.89" length="0.10" shape="498.40,1000.00 498.40,1000.00"/>
    </edge>
    <edge id=":10_3" function="internal">
        <lane id=":10_3_0" index="0" speed="3.65" length="2.34" shape="498.40,1000.00 499.20,998.80 500.00,998.40"/>
    </edge>
    <edge id=":10_8" function="internal">
        <lane id=":10_8_0" index="0" speed="3.65" length="2.34" shape="500.00,998.40 500.80,998.80 501.60,1000.00"/>
    </edge>
    <edge id=":10_4" function="internal">
        <lane id=":10_4_0" index="0" speed="13.89" length="0.10" shape="508.00,1000.00 508.00,1000.00"/>
        <lane id=":10_4_1" index="1" speed="13.89" length="0.10" shape="504.80,1000.00 504.80,1000.00"/>
        <lane id=":10_4_2" index="2" speed="13.89" length="0.10" shape="501.60,1000.00 501.60,1000.00"/>
    </edge>
    <edge id=":10_7" function="internal">
        <lane id=":10_7_0" index="0" speed="3.65" length="2.34" shape="501.60,1000.00 500.80,1001.20 500.00,1001.60"/>
    </edge>
    <edge id=":10_9" function="internal">
        <lane id=":10_9_0" index="0" speed="3.65" length="2.34" shape="500.00,1001.60 499.20,1001.20 498.40,1000.00"/>
    </edge>
    <edge id=":11_0" function="internal">
        <lane id=":11_0_0" index="0" speed="6.51" length="9.03" shape="492.00,1513.60 491.65,1511.15 490.60,1509.40 488.85,1508.35 486.40,1508.00"/>
    </edge>
    <edge id=":11_1" function="internal">
        <lane id=":11_1_0" index="0" speed="13.89" length="27.20" shape="492.00,1513.60 492.00,1486.40"/>
        <lane id=":11_1_1" index="1" speed="13.89" length="27.20" shape="495.20,1513.60 495.20,1486.40"/>
        <lane id=":11_1_2" index="2" speed="13.89" length="27.20" shape="498.40,1513.60 498.40,1486.40"/>
    </edge>
    <edge id=":11_4" function="internal">
        <lane id=":11_4_0" index="0" speed="10.36" length="7.98" shape="498.40,1513.60 499.35,1506.95 500.00,1505.87"/>
    </edge>
    <edge id=":11_5" function="internal">
        <lane id=":11_5_0" index="0" speed="3.65" length="2.34" shape="498.40,1513.60 499.20,1512.40 500.00,1512.00"/>
    </edge>
    <edge id=":11_24" function="internal">
        <lane id=":11_24_0" index="0" speed="10.36" length="16.53" shape="500.00,1505.87 502.20,1502.20 506.95,1499.35 513.60,1498.40"/>
    </edge>
    <edge id=":11_25" function="internal">
        <lane id=":11_25_0" index="0" speed="3.65" length="2.34" shape="500.00,1512.00 500.80,1512.40 501.60,1513.60"/>
    </edge>
    <edge id=":11_6" function="internal">
        <lane id=":11_6_0" index="0" speed="6.51" length="9.03" shape="513.60,1508.00 511.15,1508.35 509.40,1509.40 508.35,1511.15 508.00,1513.60"/>
    </edge>
    <edge id=":11_7" function="internal">
        <lane id=":11_7_0" index="0" speed="13.89" length="27.20" shape="513.60,1508.00 486.40,1508.00"/>
        <lane id=":11_7_1" index="1" speed="13.89" length="27.20" shape="513.60,1504.80 486.40,1504.80"/>
        <lane id=":11_7_2" index="2" speed="13.89" length="27.20" shape="513.60,1501.60 486.40,1501.60"/>
    </edge>
    <edge id=":11_10" function="internal">
        <lane id=":11_10_0" index="0" speed="10.36" length="7.98" shape="513.60,1501.60 506.95,1500.65 505.87,1500.00"/>
    </edge>
    <edge id=":11_11" function="internal">
        <lane id=":11_11_0" index="0" speed="3.65" length="2.34" shape="513.60,1501.60 512.40,1500.80 512.00,1500.00"/>
    </edge>
    <edge id=":11_26" function="internal">
        <lane id=":11_26_0" index="0" speed="10.36" length="16.53" shape="505.87,1500.00 502.20,1497.80 499.35,1493.05 498.40,1486.40"/>
    </edge>
    <edge id=":11_27" function="internal">
        <lane id=":11_27_0" index="0" speed="3.65" length="2.34" shape="512.00,1500.00 512.40,1499.20 513.60,1498.40"/>
    </edge>
    <edge id=":11_12" function="internal">
        <lane id=":11_12_0" index="0" speed="6.51" length="9.03" shape="508.00,1486.40 508.35,1488.85 509.40,1490.60 511.15,1491.65 513.60,1492.00"/>
    </edge>
    <edge id=":11_13" function="internal">
        <lane id=":11_13_0" index="0" speed="13.89" length="27.20" shape="508.00,1486.40 508.00,1513.60"/>
        <lane id=":11_13_1" index="1" speed="13.89" length="27.20" shape="504.80,1486.40 504.80,1513.60"/>
        <lane id=":11_13_2" index="2" speed="13.89" length="27.20" shape="501.60,1486.40 501.60,1513.60"/>
    </edge>
    <edge id=":11_16" function="internal">
        <lane id=":11_16_0" index="0" speed="10.36" length="7.98" shape="501.60,1486.40 500.65,1493.05 500.00,1494.13"/>
    </edge>
    <edge id=":11_17" function="internal">
        <lane id=":11_17_0" index="0" speed="3.65" length="2.34" shape="501.60,1486.40 500.80,1487.60 500.00,1488.00"/>
    </edge>
    <edge id=":11_28" function="internal">
        <lane id=":11_28_0" index="0" speed="10.36" length="16.53" shape="500.00,1494.13 497.80,1497.80 493.05,1500.65 486.40,1501.60"/>
    </edge>
    <edge id=":11_29" function="internal">
        <lane id=":11_29_0" index="0" speed="3.65" length="2.34" shape="500.00,1488.00 499.20,1487.60 498.40,1486.40"/>
    </edge>
    <edge id=":11_18" function="internal">
        <lane id=":11_18_0" index="0" speed="6.51" length="9.03" shape="486.40,1492.00 488.85,1491.65 490.60,1490.60 491.65,1488.85 492.00,1486.40"/>
    </edge>
    <edge id=":11_19" function="internal">
        <lane id=":11_19_0" index="0" speed="13.89" length="27.20" shape="486.40,1492.00 513.60,1492.00"/>
        <lane id=":11_19_1" index="1" speed="13.89" length="27.20" shape="486.40,1495.20 513.60,1495.20"/>
        <lane id=":11_19_2" index="2" speed="13.89" length="27.20" shape="486.40,1498.40 513.60,1498.40"/>
    </edge>
    <edge id=":11_22" function="internal">
        <lane id=":11_22_0" index="0" speed="10.36" length="7.98" shape="486.40,1498.40 493.05,1499.35 494.13,1500.00"/>
    </edge>
    <edge id=":11_23" function="internal">
        <lane id=":11_23_0" index="0" speed="3.65" length="2.34" shape="486.40,1498.40 487.60,1499.20 488.00,1500.00"/>
    </edge>
    <edge id=":11_30" function="internal">
        <lane id=":11_30_0" index="0" speed="10.36" length="16.53" shape="494.13,1500.00 497.80,1502.20 500.65,1506.95 501.60,1513.60"/>
    </edge>
    <edge id=":11_31" function="internal">
        <lane id=":11_31_0" index="0" speed="3.65" length="2.34" shape="488.00,1500.00 487.60,1500.80 486.40,1501.60"/>
    </edge>
    <edge id=":12_0" function="internal">
        <lane id=":12_0_0" index="0" speed="6.51" length="9.03" shape="492.00,2013.60 491.65,2011.15 490.60,2009.40 488.85,2008.35 486.40,2008.00"/>
    </edge>
    <edge id=":12_1" function="internal">
        <lane id=":12_1_0" index="0" speed="13.89" length="27.20" shape="492.00,2013.60 492.00,1986.40"/>
        <lane id=":12_1_1" index="1" speed="13.89" length="27.20" shape="495.20,2013.60 495.20,1986.40"/>
        <lane id=":12_1_2" index="2" speed="13.89" length="27.20" shape="498.40,2013.60 498.40,1986.40"/>
    </edge>
    <edge id=":12_4" function="internal">
        <lane id=":12_4_0" index="0" speed="10.36" length="7.98" shape="498.40,2013.60 499.35,2006.95 500.00,2005.87"/>
    </edge>
    <edge id=":12_5" function="internal">
        <lane id=":12_5_0" index="0" speed="3.65" length="2.34" shape="498.40,2013.60 499.20,2012.40 500.00,2012.00"/>
    </edge>
    <edge id=":12_24" function="internal">
        <lane id=":12_24_0" index="0" speed="10.36" length="16.53" shape="500.00,2005.87 502.20,2002.20 506.95,1999.35 513.60,1998.40"/>
    </edge>
    <edge id=":12_25" function="internal">
        <lane id=":12_25_0" index="0" speed="3.65" length="2.34" shape="500.00,2012.00 500.80,2012.40 501.60,2013.60"/>
    </edge>
    <edge id=":12_6" function="internal">
        <lane id=":12_6_0" index="0" speed="6.51" length="9.03" shape="513.60,2008.00 511.15,2008.35 509.40,2009.40 508.35,2011.15 508.00,2013.60"/>
    </edge>
    <edge id=":12_7" function="internal">
        <lane id=":12_7_0" index="0" speed="13.89" length="27.20" shape="513.60,2008.00 486.40,2008.00"/>
        <lane id=":12_7_1" index="1" speed="13.89" length="27.20" shape="513.60,2004.80 486.40,2004.80"/>
        <lane id=":12_7_2" index="2" speed="13.89" length="27.20" shape="513.60,2001.60 486.40,2001.60"/>
    </edge>
    <edge id=":12_10" function="internal">
        <lane id=":12_10_0" index="0" speed="10.36" length="7.98" shape="513.60,2001.60 506.95,2000.65 505.87,2000.00"/>
    </edge>
    <edge id=":12_11" function="internal">
        <lane id=":12_11_0" index="0" speed="3.65" length="2.34" shape="513.60,2001.60 512.40,2000.80 512.00,2000.00"/>
    </edge>
    <edge id=":12_26" function="internal">
        <lane id=":12_26_0" index="0" speed="10.36" length="16.53" shape="505.87,2000.00 502.20,1997.80 499.35,1993.05 498.40,1986.40"/>
    </edge>
    <edge id=":12_27" function="internal">
        <lane id=":12_27_0" index="0" speed="3.65" length="2.34" shape="512.00,2000.00 512.40,1999.20 513.60,1998.40"/>
    </edge>
    <edge id=":12_12" function="internal">
        <lane id=":12_12_0" index="0" speed="6.51" length="9.03" shape="508.00,1986.40 508.35,1988.85 509.40,1990.60 511.15,1991.65 513.60,1992.00"/>
    </edge>
    <edge id=":12_13" function="internal">
        <lane id=":12_13_0" index="0" speed="13.89" length="27.20" shape="508.00,1986.40 508.00,2013.60"/>
        <lane id=":12_13_1" index="1" speed="13.89" length="27.20" shape="504.80,1986.40 504.80,2013.60"/>
        <lane id=":12_13_2" index="2" speed="13.89" length="27.20" shape="501.60,1986.40 501.60,2013.60"/>
    </edge>
    <edge id=":12_16" function="internal">
        <lane id=":12_16_0" index="0" speed="10.36" length="7.98" shape="501.60,1986.40 500.65,1993.05 500.00,1994.13"/>
    </edge>
    <edge id=":12_17" function="internal">
        <lane id=":12_17_0" index="0" speed="3.65" length="2.34" shape="501.60,1986.40 500.80,1987.60 500.00,1988.00"/>
    </edge>
    <edge id=":12_28" function="internal">
        <lane id=":12_28_0" index="0" speed="10.36" length="16.53" shape="500.00,1994.13 497.80,1997.80 493.05,2000.65 486.40,2001.60"/>
    </edge>
    <edge id=":12_29" function="internal">
        <lane id=":12_29_0" index="0" speed="3.65" length="2.34" shape="500.00,1988.00 499.20,1987.60 498.40,1986.40"/>
    </edge>
    <edge id=":12_18" function="internal">
        <lane id=":12_18_0" index="0" speed="6.51" length="9.03" shape="486.40,1992.00 488.85,1991.65 490.60,1990.60 491.65,1988.85 492.00,1986.40"/>
    </edge>
    <edge id=":12_19" function="internal">
        <lane id=":12_19_0" index="0" speed="13.89" length="27.20" shape="486.40,1992.00 513.60,1992.00"/>
        <lane id=":12_19_1" index="1" speed="13.89" length="27.20" shape="486.40,1995.20 513.60,1995.20"/>
        <lane id=":12_19_2" index="2" speed="13.89" length="27.20" shape="486.40,1998.40 513.60,1998.40"/>
    </edge>
    <edge id=":12_22" function="internal">
        <lane id=":12_22_0" index="0" speed="10.36" length="7.98" shape="486.40,1998.40 493.05,1999.35 494.13,2000.00"/>
    </edge>
    <edge id=":12_23" function="internal">
        <lane id=":12_23_0" index="0" speed="3.65" length="2.34" shape="486.40,1998.40 487.60,1999.20 488.00,2000.00"/>
    </edge>
    <edge id=":12_30" function="internal">
        <lane id=":12_30_0" index="0" speed="10.36" length="16.53" shape="494.13,2000.00 497.80,2002.20 500.65,2006.95 501.60,2013.60"/>
    </edge>
    <edge id=":12_31" function="internal">
        <lane id=":12_31_0" index="0" speed="3.65" length="2.34" shape="488.00,2000.00 487.60,2000.80 486.40,2001.60"/>
    </edge>
    <edge id=":13_0" function="internal">
        <lane id=":13_0_0" index="0" speed="6.51" length="9.03" shape="492.00,2513.60 491.65,2511.15 490.60,2509.40 488.85,2508.35 486.40,2508.00"/>
    </edge>
    <edge id=":13_1" function="internal">
        <lane id=":13_1_0" index="0" speed="13.89" length="27.20" shape="492.00,2513.60 492.00,2486.40"/>
        <lane id=":13_1_1" index="1" speed="13.89" length="27.20" shape="495.20,2513.60 495.20,2486.40"/>
        <lane id=":13_1_2" index="2" speed="13.89" length="27.20" shape="498.40,2513.60 498.40,2486.40"/>
    </edge>
    <edge id=":13_4" function="internal">
        <lane id=":13_4_0" index="0" speed="10.36" length="7.98" shape="498.40,2513.60 499.35,2506.95 500.00,2505.87"/>
    </edge>
    <edge id=":13_5" function="internal">
        <lane id=":13_5_0" index="0" speed="3.65" length="2.34" shape="498.40,2513.60 499.20,2512.40 500.00,2512.00"/>
    </edge>
    <edge id=":13_24" function="internal">
        <lane id=":13_24_0" index="0" speed="10.36" length="16.53" shape="500.00,2505.87 502.20,2502.20 506.95,2499.35 513.60,2498.40"/>
    </edge>
    <edge id=":13_25" function="internal">
        <lane id=":13_25_0" index="0" speed="3.65" length="2.34" shape="500.00,2512.00 500.80,2512.40 501.60,2513.60"/>
    </edge>
    <edge id=":13_6" function="internal">
        <lane id=":13_6_0" index="0" speed="6.51" length="9.03" shape="513.60,2508.00 511.15,2508.35 509.40,2509.40 508.35,2511.15 508.00,2513.60"/>
    </edge>
    <edge id=":13_7" function="internal">
        <lane id=":13_7_0" index="0" speed="13.89" length="27.20" shape="513.60,2508.00 486.40,2508.00"/>
        <lane id=":13_7_1" index="1" speed="13.89" length="27.20" shape="513.60,2504.80 486.40,2504.80"/>
        <lane id=":13_7_2" index="2" speed="13.89" length="27.20" shape="513.60,2501.60 486.40,2501.60"/>
    </edge>
    <edge id=":13_10" function="internal">
        <lane id=":13_10_0" index="0" speed="10.36" length="7.98" shape="513.60,2501.60 506.95,2500.65 505.87,2500.00"/>
    </edge>
    <edge id=":13_11" function="internal">
        <lane id=":13_11_0" index="0" speed="3.65" length="2.34" shape="513.60,2501.60 512.40,2500.80 512.00,2500.00"/>
    </edge>
    <edge id=":13_26" function="internal">
        <lane id=":13_26_0" index="0" speed="10.36" length="16.53" shape="505.87,2500.00 502.20,2497.80 499.35,2493.05 498.40,2486.40"/>
    </edge>
    <edge id=":13_27" function="internal">
        <lane id=":13_27_0" index="0" speed="3.65" length="2.34" shape="512.00,2500.00 512.40,2499.20 513.60,2498.40"/>
    </edge>
    <edge id=":13_12" function="internal">
        <lane id=":13_12_0" index="0" speed="6.51" length="9.03" shape="508.00,2486.40 508.35,2488.85 509.40,2490.60 511.15,2491.65 513.60,2492.00"/>
    </edge>
    <edge id=":13_13" function="internal">
        <lane id=":13_13_0" index="0" speed="13.89" length="27.20" shape="508.00,2486.40 508.00,2513.60"/>
        <lane id=":13_13_1" index="1" speed="13.89" length="27.20" shape="504.80,2486.40 504.80,2513.60"/>
        <lane id=":13_13_2" index="2" speed="13.89" length="27.20" shape="501.60,2486.40 501.60,2513.60"/>
    </edge>
    <edge id=":13_16" function="internal">
        <lane id=":13_16_0" index="0" speed="10.36" length="7.98" shape="501.60,2486.40 500.65,2493.05 500.00,2494.13"/>
    </edge>
    <edge id=":13_17" function="internal">
        <lane id=":13_17_0" index="0" speed="3.65" length="2.34" shape="501.60,2486.40 500.80,2487.60 500.00,2488.00"/>
    </edge>
    <edge id=":13_28" function="internal">
        <lane id=":13_28_0" index="0" speed="10.36" length="16.53" shape="500.00,2494.13 497.80,2497.80 493.05,2500.65 486.40,2501.60"/>
    </edge>
    <edge id=":13_29" function="internal">
        <lane id=":13_29_0" index="0" speed="3.65" length="2.34" shape="500.00,2488.00 499.20,2487.60 498.40,2486.40"/>
    </edge>
    <edge id=":13_18" function="internal">
        <lane id=":13_18_0" index="0" speed="6.51" length="9.03" shape="486.40,2492.00 488.85,2491.65 490.60,2490.60 491.65,2488.85 492.00,2486.40"/>
    </edge>
    <edge id=":13_19" function="internal">
        <lane id=":13_19_0" index="0" speed="13.89" length="27.20" shape="486.40,2492.00 513.60,2492.00"/>
        <lane id=":13_19_1" index="1" speed="13.89" length="27.20" shape="486.40,2495.20 513.60,2495.20"/>
        <lane id=":13_19_2" index="2" speed="13.89" length="27.20" shape="486.40,2498.40 513.60,2498.40"/>
    </edge>
    <edge id=":13_22" function="internal">
        <lane id=":13_22_0" index="0" speed="10.36" length="7.98" shape="486.40,2498.40 493.05,2499.35 494.13,2500.00"/>
    </edge>
    <edge id=":13_23" function="internal">
        <lane id=":13_23_0" index="0" speed="3.65" length="2.34" shape="486.40,2498.40 487.60,2499.20 488.00,2500.00"/>
    </edge>
    <edge id=":13_30" function="internal">
        <lane id=":13_30_0" index="0" speed="10.36" length="16.53" shape="494.13,2500.00 497.80,2502.20 500.65,2506.95 501.60,2513.60"/>
    </edge>
    <edge id=":13_31" function="internal">
        <lane id=":13_31_0" index="0" speed="3.65" length="2.34" shape="488.00,2500.00 487.60,2500.80 486.40,2501.60"/>
    </edge>
    <edge id=":14_0" function="internal">
        <lane id=":14_0_0" index="0" speed="6.51" length="9.03" shape="492.00,3013.60 491.65,3011.15 490.60,3009.40 488.85,3008.35 486.40,3008.00"/>
    </edge>
    <edge id=":14_1" function="internal">
        <lane id=":14_1_0" index="0" speed="13.89" length="27.20" shape="492.00,3013.60 492.00,2986.40"/>
        <lane id=":14_1_1" index="1" speed="13.89" length="27.20" shape="495.20,3013.60 495.20,2986.40"/>
        <lane id=":14_1_2" index="2" speed="13.89" length="27.20" shape="498.40,3013.60 498.40,2986.40"/>
    </edge>
    <edge id=":14_4" function="internal">
        <lane id=":14_4_0" index="0" speed="10.36" length="7.98" shape="498.40,3013.60 499.35,3006.95 500.00,3005.87"/>
    </edge>
    <edge id=":14_5" function="internal">
        <lane id=":14_5_0" index="0" speed="3.65" length="2.34" shape="498.40,3013.60 499.20,3012.40 500.00,3012.00"/>
    </edge>
    <edge id=":14_24" function="internal">
        <lane id=":14_24_0" index="0" speed="10.36" length="16.53" shape="500.00,3005.87 502.20,3002.20 506.95,2999.35 513.60,2998.40"/>
    </edge>
    <edge id=":14_25" function="internal">
        <lane id=":14_25_0" index="0" speed="3.65" length="2.34" shape="500.00,3012.00 500.80,3012.40 501.60,3013.60"/>
    </edge>
    <edge id=":14_6" function="internal">
        <lane id=":14_6_0" index="0" speed="6.51" length="9.03" shape="513.60,3008.00 511.15,3008.35 509.40,3009.40 508.35,3011.15 508.00,3013.60"/>
    </edge>
    <edge id=":14_7" function="internal">
        <lane id=":14_7_0" index="0" speed="13.89" length="27.20" shape="513.60,3008.00 486.40,3008.00"/>
        <lane id=":14_7_1" index="1" speed="13.89" length="27.20" shape="513.60,3004.80 486.40,3004.80"/>
        <lane id=":14_7_2" index="2" speed="13.89" length="27.20" shape="513.60,3001.60 486.40,3001.60"/>
    </edge>
    <edge id=":14_10" function="internal">
        <lane id=":14_10_0" index="0" speed="10.36" length="7.98" shape="513.60,3001.60 506.95,3000.65 505.87,3000.00"/>
    </edge>
    <edge id=":14_11" function="internal">
        <lane id=":14_11_0" index="0" speed="3.65" length="2.34" shape="513.60,3001.60 512.40,3000.80 512.00,3000.00"/>
    </edge>
    <edge id=":14_26" function="internal">
        <lane id=":14_26_0" index="0" speed="10.36" length="16.53" shape="505.87,3000.00 502.20,2997.80 499.35,2993.05 498.40,2986.40"/>
    </edge>
    <edge id=":14_27" function="internal">
        <lane id=":14_27_0" index="0" speed="3.65" length="2.34" shape="512.00,3000.00 512.40,2999.20 513.60,2998.40"/>
    </edge>
    <edge id=":14_12" function="internal">
        <lane id=":14_12_0" index="0" speed="6.51" length="9.03" shape="508.00,2986.40 508.35,2988.85 509.40,2990.60 511.15,2991.65 513.60,2992.00"/>
    </edge>
    <edge id=":14_13" function="internal">
        <lane id=":14_13_0" index="0" speed="13.89" length="27.20" shape="508.00,2986.40 508.00,3013.60"/>
        <lane id=":14_13_1" index="1" speed="13.89" length="27.20" shape="504.80,2986.40 504.80,3013.60"/>
        <lane id=":14_13_2" index="2" speed="13.89" length="27.20" shape="501.60,2986.40 501.60,3013.60"/>
    </edge>
    <edge id=":14_16" function="internal">
        <lane id=":14_16_0" index="0" speed="10.36" length="7.98" shape="501.60,2986.40 500.65,2993.05 500.00,2994.13"/>
    </edge>
    <edge id=":14_17" function="internal">
        <lane id=":14_17_0" index="0" speed="3.65" length="2.34" shape="501.60,2986.40 500.80,2987.60 500.00,2988.00"/>
    </edge>
    <edge id=":14_28" function="internal">
        <lane id=":14_28_0" index="0" speed="10.36" length="16.53" shape="500.00,2994.13 497.80,2997.80 493.05,3000.65 486.40,3001.60"/>
    </edge>
    <edge id=":14_29" function="internal">
        <lane id=":14_29_0" index="0" speed="3.65" length="2.34" shape="500.00,2988.00 499.20,2987.60 498.40,2986.40"/>
    </edge>
    <edge id=":14_18" function="internal">
        <lane id=":14_18_0" index="0" speed="6.51" length="9.03" shape="486.40,2992.00 488.85,2991.65 490.60,2990.60 491.65,2988.85 492.00,2986.40"/>
    </edge>
    <edge id=":14_19" function="internal">
        <lane id=":14_19_0" index="0" speed="13.89" length="27.20" shape="486.40,2992.00 513.60,2992.00"/>
        <lane id=":14_19_1" index="1" speed="13.89" length="27.20" shape="486.40,2995.20 513.60,2995.20"/>
        <lane id=":14_19_2" index="2" speed="13.89" length="27.20" shape="486.40,2998.40 513.60,2998.40"/>
    </edge>
    <edge id=":14_22" function="internal">
        <lane id=":14_22_0" index="0" speed="10.36" length="7.98" shape="486.40,2998.40 493.05,2999.35 494.13,3000.00"/>
    </edge>
    <edge id=":14_23" function="internal">
        <lane id=":14_23_0" index="0" speed="3.65" length="2.34" shape="486.40,2998.40 487.60,2999.20 488.00,3000.00"/>
    </edge>
    <edge id=":14_30" function="internal">
        <lane id=":14_30_0" index="0" speed="10.36" length="16.53" shape="494.13,3000.00 497.80,3002.20 500.65,3006.95 501.60,3013.60"/>
    </edge>
    <edge id=":14_31" function="internal">
        <lane id=":14_31_0" index="0" speed="3.65" length="2.34" shape="488.00,3000.00 487.60,3000.80 486.40,3001.60"/>
    </edge>
    <edge id=":15_0" function="internal">
        <lane id=":15_0_0" index="0" speed="13.89" length="0.10" shape="492.00,3500.00 492.00,3500.00"/>
        <lane id=":15_0_1" index="1" speed="13.89" length="0.10" shape="495.20,3500.00 495.20,3500.00"/>
        <lane id=":15_0_2" index="2" speed="13.89" length="0.10" shape="498.40,3500.00 498.40,3500.00"/>
    </edge>
    <edge id=":15_3" function="internal">
        <lane id=":15_3_0" index="0" speed="13.89" length="0.10" shape="508.00,3500.00 508.00,3500.00"/>
        <lane id=":15_3_1" index="1" speed="13.89" length="0.10" shape="504.80,3500.00 504.80,3500.00"/>
        <lane id=":15_3_2" index="2" speed="13.89" length="0.10" shape="501.60,3500.00 501.60,3500.00"/>
    </edge>
    <edge id=":15_6" function="internal">
        <lane id=":15_6_0" index="0" speed="3.65" length="2.34" shape="501.60,3500.00 500.80,3501.20 500.00,3501.60"/>
    </edge>
    <edge id=":15_7" function="internal">
        <lane id=":15_7_0" index="0" speed="3.65" length="2.34" shape="500.00,3501.60 499.20,3501.20 498.40,3500.00"/>
    </edge>
    <edge id=":16_0" function="internal">
        <lane id=":16_0_0" index="0" speed="3.65" length="4.67" shape="998.40,0.00 999.20,-1.20 1000.00,-1.60 1000.80,-1.20 1001.60,0.00"/>
    </edge>
    <edge id=":17_0" function="internal">
        <lane id=":17_0_0" index="0" speed="6.51" length="9.03" shape="992.00,513.60 991.65,511.15 990.60,509.40 988.85,508.35 986.40,508.00"/>
    </edge>
    <edge id=":17_1" function="internal">
        <lane id=":17_1_0" index="0" speed="13.89" length="27.20" shape="992.00,513.60 992.00,486.40"/>
        <lane id=":17_1_1" index="1" speed="13.89" length="27.20" shape="995.20,513.60 995.20,486.40"/>
        <lane id=":17_1_2" index="2" speed="13.89" length="27.20" shape="998.40,513.60 998.40,486.40"/>
    </edge>
    <edge id=":17_4" function="internal">
        <lane id=":17_4_0" index="0" speed="10.36" length="7.98" shape="998.40,513.60 999.35,506.95 1000.00,505.87"/>
    </edge>
    <edge id=":17_5" function="internal">
        <lane id=":17_5_0" index="0" speed="3.65" length="2.34" shape="998.40,513.60 999.20,512.40 1000.00,512.00"/>
    </edge>
    <edge id=":17_24" function="internal">
        <lane id=":17_24_0" index="0" speed="10.36" length="16.53" shape="1000.00,505.87 1002.20,502.20 1006.95,499.35 1013.60,498.40"/>
    </edge>
    <edge id=":17_25" function="internal">
        <lane id=":17_25_0" index="0" speed="3.65" length="2.34" shape="1000.00,512.00 1000.80,512.40 1001.60,513.60"/>
    </edge>
    <edge id=":17_6" function="internal">
        <lane id=":17_6_0" index="0" speed="6.51" length="9.03" shape="1013.60,508.00 1011.15,508.35 1009.40,509.40 1008.35,511.15 1008.00,513.60"/>
    </edge>
    <edge id=":17_7" function="internal">
        <lane id=":17_7_0" index="0" speed="13.89" length="27.20" shape="1013.60,508.00 986.40,508.00"/>
        <lane id=":17_7_1" index="1" speed="13.89" length="27.20" shape="1013.60,504.80 986.40,504.80"/>
        <lane id=":17_7_2" index="2" speed="13.89" length="27.20" shape="1013.60,501.60 986.40,501.60"/>
    </edge>
    <edge id=":17_10" function="internal">
        <lane id=":17_10_0" index="0" speed="10.36" length="7.98" shape="1013.60,501.60 1006.95,500.65 1005.87,500.00"/>
    </edge>
    <edge id=":17_11" function="internal">
        <lane id=":17_11_0" index="0" speed="3.65" length="2.34" shape="1013.60,501.60 1012.40,500.80 1012.00,500.00"/>
    </edge>
    <edge id=":17_26" function="internal">
        <lane id=":17_26_0" index="0" speed="10.36" length="16.53" shape="1005.87,500.00 1002.20,497.80 999.35,493.05 998.40,486.40"/>
    </edge>
    <edge id=":17_27" function="internal">
        <lane id=":17_27_0" index="0" speed="3.65" length="2.34" shape="1012.00,500.00 1012.40,499.20 1013.60,498.40"/>
    </edge>
    <edge id=":17_12" function="internal">
        <lane id=":17_12_0" index="0" speed="6.51" length="9.03" shape="1008.00,486.40 1008.35,488.85 1009.40,490.60 1011.15,491.65 1013.60,492.00"/>
    </edge>
    <edge id=":17_13" function="internal">
        <lane id=":17_13_0" index="0" speed="13.89" length="27.20" shape="1008.00,486.40 1008.00,513.60"/>
        <lane id=":17_13_1" index="1" speed="13.89" length="27.20" shape="1004.80,486.40 1004.80,513.60"/>
        <lane id=":17_13_2" index="2" speed="13.89" length="27.20" shape="1001.60,486.40 1001.60,513.60"/>
    </edge>
    <edge id=":17_16" function="internal">
        <lane id=":17_16_0" index="0" speed="10.36" length="7.98" shape="1001.60,486.40 1000.65,493.05 1000.00,494.13"/>
    </edge>
    <edge id=":17_17" function="internal">
        <lane id=":17_17_0" index="0" speed="3.65" length="2.34" shape="1001.60,486.40 1000.80,487.60 1000.00,488.00"/>
    </edge>
    <edge id=":17_28" function="internal">
        <lane id=":17_28_0" index="0" speed="10.36" length="16.53" shape="1000.00,494.13 997.80,497.80 993.05,500.65 986.40,501.60"/>
    </edge>
    <edge id=":17_29" function="internal">
        <lane id=":17_29_0" index="0" speed="3.65" length="2.34" shape="1000.00,488.00 999.20,487.60 998.40,486.40"/>
    </edge>
    <edge id=":17_18" function="internal">
        <lane id=":17_18_0" index="0" speed="6.51" length="9.03" shape="986.40,492.00 988.85,491.65 990.60,490.60 991.65,488.85 992.00,486.40"/>
    </edge>
    <edge id=":17_19" function="internal">
        <lane id=":17_19_0" index="0" speed="13.89" length="27.20" shape="986.40,492.00 1013.60,492.00"/>
        <lane id=":17_19_1" index="1" speed="13.89" length="27.20" shape="986.40,495.20 1013.60,495.20"/>
        <lane id=":17_19_2" index="2" speed="13.89" length="27.20" shape="986.40,498.40 1013.60,498.40"/>
    </edge>
    <edge id=":17_22" function="internal">
        <lane id=":17_22_0" index="0" speed="10.36" length="7.98" shape="986.40,498.40 993.05,499.35 994.13,500.00"/>
    </edge>
    <edge id=":17_23" function="internal">