<?xml version="1.0" encoding="UTF-8"?>

<!-- generated on 2021-11-19 20:56:42 by Eclipse SUMO netedit Version 1.9.2
<configuration xmlns:xsi="http://www.w3.org/2001/XMLSchema-instance" xsi:noNamespaceSchemaLocation="http://sumo.dlr.de/xsd/netconvertConfiguration.xsd">

    <input>
        <sumo-net-file value="F:\OneDrive\OneDrive%20-%20City%20University%20of%20Hong%20Kong\Research%20in%20CityU\Code\SUMO_MFD\Bilevel_15.0\network\GridBuffer\GridBuffer.net.xml"/>
    </input>

    <output>
        <output-file value="F:\OneDrive\OneDrive%20-%20City%20University%20of%20Hong%20Kong\Research%20in%20CityU\Code\SUMO_MFD\Bilevel_15.0\network\GridBuffer\GridBuffer.net.xml"/>
    </output>

    <processing>
        <geometry.min-radius.fix.railways value="false"/>
        <geometry.max-grade.fix value="false"/>
        <offset.disable-normalization value="true"/>
        <lefthand value="false"/>
    </processing>

    <junctions>
        <no-turnarounds value="true"/>
        <junctions.corner-detail value="5"/>
        <junctions.limit-turn-speed value="5.5"/>
        <rectangular-lane-cut value="false"/>
    </junctions>

    <pedestrian>
        <walkingareas value="false"/>
    </pedestrian>

    <report>
        <aggregate-warnings value="5"/>
    </report>

</configuration>
-->

<net version="1.9" junctionCornerDetail="5" limitTurnSpeed="5.50" xmlns:xsi="http://www.w3.org/2001/XMLSchema-instance" xsi:noNamespaceSchemaLocation="http://sumo.dlr.de/xsd/net_file.xsd">

    <location netOffset="0.00,0.00" convBoundary="-1000.00,-1000.00,3000.00,3000.00" origBoundary="0.00,0.00,2000.00,2000.00" projParameter="!"/>

    <edge id=":0_0" function="internal">
        <lane id=":0_0_0" index="0" speed="11.12" length="28.38" shape="-8.00,9.60 -6.90,1.90 -3.60,-3.60 1.90,-6.90 9.60,-8.00"/>
        <lane id=":0_0_1" index="1" speed="10.10" length="23.22" shape="-4.80,9.60 -3.90,3.30 -1.20,-1.20 3.30,-3.90 9.60,-4.80"/>
        <lane id=":0_0_2" index="2" speed="8.96" length="18.06" shape="-1.60,9.60 -0.90,4.70 1.20,1.20 4.70,-0.90 9.60,-1.60"/>
    </edge>
    <edge id=":0_3" function="internal">
        <lane id=":0_3_0" index="0" speed="3.90" length="2.58" shape="9.60,8.00 8.90,8.10 8.40,8.40 8.10,8.90 8.00,9.60"/>
        <lane id=":0_3_1" index="1" speed="6.08" length="7.74" shape="9.60,4.80 7.50,5.10 6.00,6.00 5.10,7.50 4.80,9.60"/>
        <lane id=":0_3_2" index="2" speed="7.66" length="12.90" shape="9.60,1.60 6.10,2.10 3.60,3.60 2.10,6.10 1.60,9.60"/>
    </edge>
    <edge id=":1_0" function="internal">
        <lane id=":1_0_0" index="0" speed="13.89" length="27.20" shape="-8.00,513.60 -8.00,486.40"/>
        <lane id=":1_0_1" index="1" speed="13.89" length="27.20" shape="-4.80,513.60 -4.80,486.40"/>
    </edge>
    <edge id=":1_2" function="internal">
        <lane id=":1_2_0" index="0" speed="11.84" length="17.34" shape="-4.80,513.60 -3.65,504.15 -0.20,497.40 -0.00,497.26"/>
        <lane id=":1_2_1" index="1" speed="10.88" length="9.57" shape="-1.60,513.60 -0.65,505.55 0.00,504.24"/>
        <lane id=":1_2_2" index="2" speed="10.36" length="7.98" shape="-1.60,513.60 -0.65,506.95 -0.00,505.87"/>
    </edge>
    <edge id=":1_15" function="internal">
        <lane id=":1_15_0" index="0" speed="11.84" length="14.95" shape="-0.00,497.26 5.55,493.35 13.60,492.00"/>
    </edge>
    <edge id=":1_16" function="internal">
        <lane id=":1_16_0" index="0" speed="10.88" length="17.57" shape="0.00,504.24 2.20,499.80 6.95,496.35 13.60,495.20"/>
    </edge>
    <edge id=":1_17" function="internal">
        <lane id=":1_17_0" index="0" speed="10.36" length="16.53" shape="-0.00,505.87 2.20,502.20 6.95,499.35 13.60,498.40"/>
    </edge>
    <edge id=":1_5" function="internal">
        <lane id=":1_5_0" index="0" speed="6.51" length="9.03" shape="13.60,508.00 11.15,508.35 9.40,509.40 8.35,511.15 8.00,513.60"/>
        <lane id=":1_5_1" index="1" speed="8.00" length="14.19" shape="13.60,504.80 9.75,505.35 7.00,507.00 5.35,509.75 4.80,513.60"/>
    </edge>
    <edge id=":1_7" function="internal">
        <lane id=":1_7_0" index="0" speed="10.88" length="27.14" shape="13.60,501.60 5.55,500.65 -0.20,497.80 -3.65,493.05 -4.80,486.40"/>
        <lane id=":1_7_1" index="1" speed="10.36" length="24.51" shape="13.60,501.60 6.95,500.65 2.20,497.80 -0.65,493.05 -1.60,486.40"/>
    </edge>
    <edge id=":1_9" function="internal">
        <lane id=":1_9_0" index="0" speed="3.65" length="2.34" shape="13.60,501.60 12.40,500.80 12.00,500.00"/>
    </edge>
    <edge id=":1_18" function="internal">
        <lane id=":1_18_0" index="0" speed="3.65" length="2.34" shape="12.00,500.00 12.40,499.20 13.60,498.40"/>
    </edge>
    <edge id=":1_10" function="internal">
        <lane id=":1_10_0" index="0" speed="6.51" length="9.03" shape="8.00,486.40 8.35,488.85 9.40,490.60 11.15,491.65 13.60,492.00"/>
    </edge>
    <edge id=":1_11" function="internal">
        <lane id=":1_11_0" index="0" speed="13.89" length="27.20" shape="8.00,486.40 8.00,513.60"/>
        <lane id=":1_11_1" index="1" speed="13.89" length="27.20" shape="4.80,486.40 4.80,513.60"/>
        <lane id=":1_11_2" index="2" speed="13.89" length="27.20" shape="1.60,486.40 1.60,513.60"/>
    </edge>
    <edge id=":1_14" function="internal">
        <lane id=":1_14_0" index="0" speed="3.65" length="2.34" shape="1.60,486.40 0.80,487.60 0.00,488.00"/>
    </edge>
    <edge id=":1_19" function="internal">
        <lane id=":1_19_0" index="0" speed="3.65" length="2.34" shape="0.00,488.00 -0.80,487.60 -1.60,486.40"/>
    </edge>
    <edge id=":10_0" function="internal">
        <lane id=":10_0_0" index="0" speed="6.51" length="9.03" shape="992.00,13.60 991.65,11.15 990.60,9.40 988.85,8.35 986.40,8.00"/>
    </edge>
    <edge id=":10_1" function="internal">
        <lane id=":10_1_0" index="0" speed="13.89" length="27.20" shape="992.00,13.60 992.00,-13.60"/>
        <lane id=":10_1_1" index="1" speed="13.89" length="27.20" shape="995.20,13.60 995.20,-13.60"/>
        <lane id=":10_1_2" index="2" speed="13.89" length="27.20" shape="998.40,13.60 998.40,-13.60"/>
    </edge>
    <edge id=":10_4" function="internal">
        <lane id=":10_4_0" index="0" speed="11.39" length="11.17" shape="998.40,13.60 999.35,4.15 1000.00,2.61"/>
        <lane id=":10_4_1" index="1" speed="10.88" length="9.57" shape="998.40,13.60 999.35,5.55 1000.00,4.24"/>
        <lane id=":10_4_2" index="2" speed="10.36" length="7.98" shape="998.40,13.60 999.35,6.95 1000.00,5.87"/>
    </edge>
    <edge id=":10_20" function="internal">
        <lane id=":10_20_0" index="0" speed="11.39" length="18.68" shape="1000.00,2.61 1002.20,-2.60 1006.95,-6.65 1013.60,-8.00"/>
    </edge>
    <edge id=":10_21" function="internal">
        <lane id=":10_21_0" index="0" speed="10.88" length="17.57" shape="1000.00,4.24 1002.20,-0.20 1006.95,-3.65 1013.60,-4.80"/>
    </edge>
    <edge id=":10_22" function="internal">
        <lane id=":10_22_0" index="0" speed="10.36" length="16.53" shape="1000.00,5.87 1002.20,2.20 1006.95,-0.65 1013.60,-1.60"/>
    </edge>
    <edge id=":10_7" function="internal">
        <lane id=":10_7_0" index="0" speed="6.51" length="9.03" shape="1013.60,8.00 1011.15,8.35 1009.40,9.40 1008.35,11.15 1008.00,13.60"/>
    </edge>
    <edge id=":10_8" function="internal">
        <lane id=":10_8_0" index="0" speed="13.89" length="27.20" shape="1013.60,8.00 986.40,8.00"/>
        <lane id=":10_8_1" index="1" speed="13.89" length="27.20" shape="1013.60,4.80 986.40,4.80"/>
        <lane id=":10_8_2" index="2" speed="13.89" length="27.20" shape="1013.60,1.60 986.40,1.60"/>
    </edge>
    <edge id=":10_11" function="internal">
        <lane id=":10_11_0" index="0" speed="3.65" length="2.34" shape="1013.60,1.60 1012.40,0.80 1012.00,0.00"/>
    </edge>
    <edge id=":10_23" function="internal">
        <lane id=":10_23_0" index="0" speed="3.65" length="2.34" shape="1012.00,0.00 1012.40,-0.80 1013.60,-1.60"/>
    </edge>
    <edge id=":10_12" function="internal">
        <lane id=":10_12_0" index="0" speed="6.51" length="9.03" shape="1008.00,-13.60 1008.35,-11.15 1009.40,-9.40 1011.15,-8.35 1013.60,-8.00"/>
        <lane id=":10_12_1" index="1" speed="8.00" length="14.19" shape="1004.80,-13.60 1005.35,-9.75 1007.00,-7.00 1009.75,-5.35 1013.60,-4.80"/>
    </edge>
    <edge id=":10_14" function="internal">
        <lane id=":10_14_0" index="0" speed="13.89" length="27.20" shape="1004.80,-13.60 1004.80,13.60"/>
        <lane id=":10_14_1" index="1" speed="13.89" length="27.20" shape="1001.60,-13.60 1001.60,13.60"/>
    </edge>
    <edge id=":10_16" function="internal">
        <lane id=":10_16_0" index="0" speed="13.89" length="27.20" shape="986.40,-8.00 1013.60,-8.00"/>
        <lane id=":10_16_1" index="1" speed="13.89" length="27.20" shape="986.40,-4.80 1013.60,-4.80"/>
    </edge>
    <edge id=":10_18" function="internal">
        <lane id=":10_18_0" index="0" speed="11.36" length="15.07" shape="986.40,-4.80 994.45,-3.65 1000.20,-0.20 1000.32,0.00"/>
        <lane id=":10_18_1" index="1" speed="10.36" length="7.98" shape="986.40,-1.60 993.05,-0.65 994.13,-0.00"/>
    </edge>
    <edge id=":10_24" function="internal">
        <lane id=":10_24_0" index="0" speed="11.36" length="14.60" shape="1000.32,0.00 1003.65,5.55 1004.80,13.60"/>
    </edge>
    <edge id=":10_25" function="internal">
        <lane id=":10_25_0" index="0" speed="10.36" length="16.53" shape="994.13,-0.00 997.80,2.20 1000.65,6.95 1001.60,13.60"/>
    </edge>
    <edge id=":11_0" function="internal">
        <lane id=":11_0_0" index="0" speed="6.51" length="9.03" shape="992.00,513.60 991.65,511.15 990.60,509.40 988.85,508.35 986.40,508.00"/>
    </edge>
    <edge id=":11_1" function="internal">
        <lane id=":11_1_0" index="0" speed="13.89" length="27.20" shape="992.00,513.60 992.00,486.40"/>
        <lane id=":11_1_1" index="1" speed="13.89" length="27.20" shape="995.20,513.60 995.20,486.40"/>
        <lane id=":11_1_2" index="2" speed="13.89" length="27.20" shape="998.40,513.60 998.40,486.40"/>
    </edge>
    <edge id=":11_4" function="internal">
        <lane id=":11_4_0" index="0" speed="10.36" length="7.98" shape="998.40,513.60 999.35,506.95 1000.00,505.87"/>
    </edge>
    <edge id=":11_5" function="internal">
        <lane id=":11_5_0" index="0" speed="3.65" length="2.34" shape="998.40,513.60 999.20,512.40 1000.00,512.00"/>
    </edge>
    <edge id=":11_24" function="internal">
        <lane id=":11_24_0" index="0" speed="10.36" length="16.53" shape="1000.00,505.87 1002.20,502.20 1006.95,499.35 1013.60,498.40"/>
    </edge>
    <edge id=":11_25" function="internal">
        <lane id=":11_25_0" index="0" speed="3.65" length="2.34" shape="1000.00,512.00 1000.80,512.40 1001.60,513.60"/>
    </edge>
    <edge id=":11_6" function="internal">
        <lane id=":11_6_0" index="0" speed="6.51" length="9.03" shape="1013.60,508.00 1011.15,508.35 1009.40,509.40 1008.35,511.15 1008.00,513.60"/>
    </edge>
    <edge id=":11_7" function="internal">
        <lane id=":11_7_0" index="0" speed="13.89" length="27.20" shape="1013.60,508.00 986.40,508.00"/>
        <lane id=":11_7_1" index="1" speed="13.89" length="27.20" shape="1013.60,504.80 986.40,504.80"/>
        <lane id=":11_7_2" index="2" speed="13.89" length="27.20" shape="1013.60,501.60 986.40,501.60"/>
    </edge>
    <edge id=":11_10" function="internal">
        <lane id=":11_10_0" index="0" speed="10.36" length="7.98" shape="1013.60,501.60 1006.95,500.65 1005.87,500.00"/>
    </edge>
    <edge id=":11_11" function="internal">
        <lane id=":11_11_0" index="0" speed="3.65" length="2.34" shape="1013.60,501.60 1012.40,500.80 1012.00,500.00"/>
    </edge>
    <edge id=":11_26" function="internal">
        <lane id=":11_26_0" index="0" speed="10.36" length="16.53" shape="1005.87,500.00 1002.20,497.80 999.35,493.05 998.40,486.40"/>
    </edge>
    <edge id=":11_27" function="internal">
        <lane id=":11_27_0" index="0" speed="3.65" length="2.34" shape="1012.00,500.00 1012.40,499.20 1013.60,498.40"/>
    </edge>
    <edge id=":11_12" function="internal">
        <lane id=":11_12_0" index="0" speed="6.51" length="9.03" shape="1008.00,486.40 1008.35,488.85 1009.40,490.60 1011.15,491.65 1013.60,492.00"/>
    </edge>
    <edge id=":11_13" function="internal">
        <lane id=":11_13_0" index="0" speed="13.89" length="27.20" shape="1008.00,486.40 1008.00,513.60"/>
        <lane id=":11_13_1" index="1" speed="13.89" length="27.20" shape="1004.80,486.40 1004.80,513.60"/>
        <lane id=":11_13_2" index="2" speed="13.89" length="27.20" shape="1001.60,486.40 1001.60,513.60"/>
    </edge>
    <edge id=":11_16" function="internal">
        <lane id=":11_16_0" index="0" speed="10.36" length="7.98" shape="1001.60,486.40 1000.65,493.05 1000.00,494.13"/>
    </edge>
    <edge id=":11_17" function="internal">
        <lane id=":11_17_0" index="0" speed="3.65" length="2.34" shape="1001.60,486.40 1000.80,487.60 1000.00,488.00"/>
    </edge>
    <edge id=":11_28" function="internal">
        <lane id=":11_28_0" index="0" speed="10.36" length="16.53" shape="1000.00,494.13 997.80,497.80 993.05,500.65 986.40,501.60"/>
    </edge>
    <edge id=":11_29" function="internal">
        <lane id=":11_29_0" index="0" speed="3.65" length="2.34" shape="1000.00,488.00 999.20,487.60 998.40,486.40"/>
    </edge>
    <edge id=":11_18" function="internal">
        <lane id=":11_18_0" index="0" speed="6.51" length="9.03" shape="986.40,492.00 988.85,491.65 990.60,490.60 991.65,488.85 992.00,486.40"/>
    </edge>
    <edge id=":11_19" function="internal">
        <lane id=":11_19_0" index="0" speed="13.89" length="27.20" shape="986.40,492.00 1013.60,492.00"/>
        <lane id=":11_19_1" index="1" speed="13.89" length="27.20" shape="986.40,495.20 1013.60,495.20"/>
        <lane id=":11_19_2" index="2" speed="13.89" length="27.20" shape="986.40,498.40 1013.60,498.40"/>
    </edge>
    <edge id=":11_22" function="internal">
        <lane id=":11_22_0" index="0" speed="10.36" length="7.98" shape="986.40,498.40 993.05,499.35 994.13,500.00"/>
    </edge>
    <edge id=":11_23" function="internal">
        <lane id=":11_23_0" index="0" speed="3.65" length="2.34" shape="986.40,498.40 987.60,499.20 988.00,500.00"/>
    </edge>
    <edge id=":11_30" function="internal">
        <lane id=":11_30_0" index="0" speed="10.36" length="16.53" shape="994.13,500.00 997.80,502.20 1000.65,506.95 1001.60,513.60"/>
    </edge>
    <edge id=":11_31" function="internal">
        <lane id=":11_31_0" index="0" speed="3.65" length="2.34" shape="988.00,500.00 987.60,500.80 986.40,501.60"/>
    </edge>
    <edge id=":12_0" function="internal">
        <lane id=":12_0_0" index="0" speed="6.51" length="9.03" shape="992.00,1013.60 991.65,1011.15 990.60,1009.40 988.85,1008.35 986.40,1008.00"/>
    </edge>
    <edge id=":12_1" function="internal">
        <lane id=":12_1_0" index="0" speed="13.89" length="27.20" shape="992.00,1013.60 992.00,986.40"/>
        <lane id=":12_1_1" index="1" speed="13.89" length="27.20" shape="995.20,1013.60 995.20,986.40"/>
        <lane id=":12_1_2" index="2" speed="13.89" length="27.20" shape="998.40,1013.60 998.40,986.40"/>
    </edge>
    <edge id=":12_4" function="internal">
        <lane id=":12_4_0" index="0" speed="10.36" length="7.98" shape="998.40,1013.60 999.35,1006.95 1000.00,1005.87"/>
    </edge>
    <edge id=":12_5" function="internal">
        <lane id=":12_5_0" index="0" speed="3.65" length="2.34" shape="998.40,1013.60 999.20,1012.40 1000.00,1012.00"/>
    </edge>
    <edge id=":12_24" function="internal">
        <lane id=":12_24_0" index="0" speed="10.36" length="16.53" shape="1000.00,1005.87 1002.20,1002.20 1006.95,999.35 1013.60,998.40"/>
    </edge>
    <edge id=":12_25" function="internal">
        <lane id=":12_25_0" index="0" speed="3.65" length="2.34" shape="1000.00,1012.00 1000.80,1012.40 1001.60,1013.60"/>
    </edge>
    <edge id=":12_6" function="internal">
        <lane id=":12_6_0" index="0" speed="6.51" length="9.03" shape="1013.60,1008.00 1011.15,1008.35 1009.40,1009.40 1008.35,1011.15 1008.00,1013.60"/>
    </edge>
    <edge id=":12_7" function="internal">
        <lane id=":12_7_0" index="0" speed="13.89" length="27.20" shape="1013.60,1008.00 986.40,1008.00"/>
        <lane id=":12_7_1" index="1" speed="13.89" length="27.20" shape="1013.60,1004.80 986.40,1004.80"/>
        <lane id=":12_7_2" index="2" speed="13.89" length="27.20" shape="1013.60,1001.60 986.40,1001.60"/>
    </edge>
    <edge id=":12_10" function="internal">
        <lane id=":12_10_0" index="0" speed="10.36" length="7.98" shape="1013.60,1001.60 1006.95,1000.65 1005.87,1000.00"/>
    </edge>
    <edge id=":12_11" function="internal">
        <lane id=":12_11_0" index="0" speed="3.65" length="2.34" shape="1013.60,1001.60 1012.40,1000.80 1012.00,1000.00"/>
    </edge>
    <edge id=":12_26" function="internal">
        <lane id=":12_26_0" index="0" speed="10.36" length="16.53" shape="1005.87,1000.00 1002.20,997.80 999.35,993.05 998.40,986.40"/>
    </edge>
    <edge id=":12_27" function="internal">
        <lane id=":12_27_0" index="0" speed="3.65" length="2.34" shape="1012.00,1000.00 1012.40,999.20 1013.60,998.40"/>
    </edge>
    <edge id=":12_12" function="internal">
        <lane id=":12_12_0" index="0" speed="6.51" length="9.03" shape="1008.00,986.40 1008.35,988.85 1009.40,990.60 1011.15,991.65 1013.60,992.00"/>
    </edge>
    <edge id=":12_13" function="internal">
        <lane id=":12_13_0" index="0" speed="13.89" length="27.20" shape="1008.00,986.40 1008.00,1013.60"/>
        <lane id=":12_13_1" index="1" speed="13.89" length="27.20" shape="1004.80,986.40 1004.80,1013.60"/>
        <lane id=":12_13_2" index="2" speed="13.89" length="27.20" shape="1001.60,986.40 1001.60,1013.60"/>
    </edge>
    <edge id=":12_16" function="internal">
        <lane id=":12_16_0" index="0" speed="10.36" length="7.98" shape="1001.60,986.40 1000.65,993.05 1000.00,994.13"/>
    </edge>
    <edge id=":12_17" function="internal">
        <lane id=":12_17_0" index="0" speed="3.65" length="2.34" shape="1001.60,986.40 1000.80,987.60 1000.00,988.00"/>
    </edge>
    <edge id=":12_28" function="internal">
        <lane id=":12_28_0" index="0" speed="10.36" length="16.53" shape="1000.00,994.13 997.80,997.80 993.05,1000.65 986.40,1001.60"/>
    </edge>
    <edge id=":12_29" function="internal">
        <lane id=":12_29_0" index="0" speed="3.65" length="2.34" shape="1000.00,988.00 999.20,987.60 998.40,986.40"/>
    </edge>
    <edge id=":12_18" function="internal">
        <lane id=":12_18_0" index="0" speed="6.51" length="9.03" shape="986.40,992.00 988.85,991.65 990.60,990.60 991.65,988.85 992.00,986.40"/>
    </edge>
    <edge id=":12_19" function="internal">
        <lane id=":12_19_0" index="0" speed="13.89" length="27.20" shape="986.40,992.00 1013.60,992.00"/>
        <lane id=":12_19_1" index="1" speed="13.89" length="27.20" shape="986.40,995.20 1013.60,995.20"/>
        <lane id=":12_19_2" index="2" speed="13.89" length="27.20" shape="986.40,998.40 1013.60,998.40"/>
    </edge>
    <edge id=":12_22" function="internal">
        <lane id=":12_22_0" index="0" speed="10.36" length="7.98" shape="986.40,998.40 993.05,999.35 994.13,1000.00"/>
    </edge>
    <edge id=":12_23" function="internal">
        <lane id=":12_23_0" index="0" speed="3.65" length="2.34" shape="986.40,998.40 987.60,999.20 988.00,1000.00"/>
    </edge>
    <edge id=":12_30" function="internal">
        <lane id=":12_30_0" index="0" speed="10.36" length="16.53" shape="994.13,1000.00 997.80,1002.20 1000.65,1006.95 1001.60,1013.60"/>
    </edge>
    <edge id=":12_31" function="internal">
        <lane id=":12_31_0" index="0" speed="3.65" length="2.34" shape="988.00,1000.00 987.60,1000.80 986.40,1001.60"/>
    </edge>
    <edge id=":13_0" function="internal">
        <lane id=":13_0_0" index="0" speed="6.51" length="9.03" shape="992.00,1513.60 991.65,1511.15 990.60,1509.40 988.85,1508.35 986.40,1508.00"/>
    </edge>
    <edge id=":13_1" function="internal">
        <lane id=":13_1_0" index="0" speed="13.89" length="27.20" shape="992.00,1513.60 992.00,1486.40"/>
        <lane id=":13_1_1" index="1" speed="13.89" length="27.20" shape="995.20,1513.60 995.20,1486.40"/>
        <lane id=":13_1_2" index="2" speed="13.89" length="27.20" shape="998.40,1513.60 998.40,1486.40"/>
    </edge>
    <edge id=":13_4" function="internal">
        <lane id=":13_4_0" index="0" speed="10.36" length="7.98" shape="998.40,1513.60 999.35,1506.95 1000.00,1505.87"/>
    </edge>
    <edge id=":13_5" function="internal">
        <lane id=":13_5_0" index="0" speed="3.65" length="2.34" shape="998.40,1513.60 999.20,1512.40 1000.00,1512.00"/>
    </edge>
    <edge id=":13_24" function="internal">
        <lane id=":13_24_0" index="0" speed="10.36" length="16.53" shape="1000.00,1505.87 1002.20,1502.20 1006.95,1499.35 1013.60,1498.40"/>
    </edge>
    <edge id=":13_25" function="internal">
        <lane id=":13_25_0" index="0" speed="3.65" length="2.34" shape="1000.00,1512.00 1000.80,1512.40 1001.60,1513.60"/>
    </edge>
    <edge id=":13_6" function="internal">
        <lane id=":13_6_0" index="0" speed="6.51" length="9.03" shape="1013.60,1508.00 1011.15,1508.35 1009.40,1509.40 1008.35,1511.15 1008.00,1513.60"/>
    </edge>
    <edge id=":13_7" function="internal">
        <lane id=":13_7_0" index="0" speed="13.89" length="27.20" shape="1013.60,1508.00 986.40,1508.00"/>
        <lane id=":13_7_1" index="1" speed="13.89" length="27.20" shape="1013.60,1504.80 986.40,1504.80"/>
        <lane id=":13_7_2" index="2" speed="13.89" length="27.20" shape="1013.60,1501.60 986.40,1501.60"/>
    </edge>
    <edge id=":13_10" function="internal">
        <lane id=":13_10_0" index="0" speed="10.36" length="7.98" shape="1013.60,1501.60 1006.95,1500.65 1005.87,1500.00"/>
    </edge>
    <edge id=":13_11" function="internal">
        <lane id=":13_11_0" index="0" speed="3.65" length="2.34" shape="1013.60,1501.60 1012.40,1500.80 1012.00,1500.00"/>
    </edge>
    <edge id=":13_26" function="internal">
        <lane id=":13_26_0" index="0" speed="10.36" length="16.53" shape="1005.87,1500.00 1002.20,1497.80 999.35,1493.05 998.40,1486.40"/>
    </edge>
    <edge id=":13_27" function="internal">
        <lane id=":13_27_0" index="0" speed="3.65" length="2.34" shape="1012.00,1500.00 1012.40,1499.20 1013.60,1498.40"/>
    </edge>
    <edge id=":13_12" function="internal">
        <lane id=":13_12_0" index="0" speed="6.51" length="9.03" shape="1008.00,1486.40 1008.35,1488.85 1009.40,1490.60 1011.15,1491.65 1013.60,1492.00"/>
    </edge>
    <edge id=":13_13" function="internal">
        <lane id=":13_13_0" index="0" speed="13.89" length="27.20" shape="1008.00,1486.40 1008.00,1513.60"/>
        <lane id=":13_13_1" index="1" speed="13.89" length="27.20" shape="1004.80,1486.40 1004.80,1513.60"/>
        <lane id=":13_13_2" index="2" speed="13.89" length="27.20" shape="1001.60,1486.40 1001.60,1513.60"/>
    </edge>
    <edge id=":13_16" function="internal">
        <lane id=":13_16_0" index="0" speed="10.36" length="7.98" shape="1001.60,1486.40 1000.65,1493.05 1000.00,1494.13"/>
    </edge>
    <edge id=":13_17" function="internal">
        <lane id=":13_17_0" index="0" speed="3.65" length="2.34" shape="1001.60,1486.40 1000.80,1487.60 1000.00,1488.00"/>
    </edge>
    <edge id=":13_28" function="internal">
        <lane id=":13_28_0" index="0" speed="10.36" length="16.53" shape="1000.00,1494.13 997.80,1497.80 993.05,1500.65 986.40,1501.60"/>
    </edge>
    <edge id=":13_29" function="internal">
        <lane id=":13_29_0" index="0" speed="3.65" length="2.34" shape="1000.00,1488.00 999.20,1487.60 998.40,1486.40"/>
    </edge>
    <edge id=":13_18" function="internal">
        <lane id=":13_18_0" index="0" speed="6.51" length="9.03" shape="986.40,1492.00 988.85,1491.65 990.60,1490.60 991.65,1488.85 992.00,1486.40"/>
    </edge>
    <edge id=":13_19" function="internal">
        <lane id=":13_19_0" index="0" speed="13.89" length="27.20" shape="986.40,1492.00 1013.60,1492.00"/>
        <lane id=":13_19_1" index="1" speed="13.89" length="27.20" shape="986.40,1495.20 1013.60,1495.20"/>
        <lane id=":13_19_2" index="2" speed="13.89" length="27.20" shape="986.40,1498.40 1013.60,1498.40"/>
    </edge>
    <edge id=":13_22" function="internal">
        <lane id=":13_22_0" index="0" speed="10.36" length="7.98" shape="986.40,1498.40 993.05,1499.35 994.13,1500.00"/>
    </edge>
    <edge id=":13_23" function="internal">
        <lane id=":13_23_0" index="0" speed="3.65" length="2.34" shape="986.40,1498.40 987.60,1499.20 988.00,1500.00"/>
    </edge>
    <edge id=":13_30" function="internal">
        <lane id=":13_30_0" index="0" speed="10.36" length="16.53" shape="994.13,1500.00 997.80,1502.20 1000.65,1506.95 1001.60,1513.60"/>
    </edge>
    <edge id=":13_31" function="internal">
        <lane id=":13_31_0" index="0" speed="3.65" length="2.34" shape="988.00,1500.00 987.60,1500.80 986.40,1501.60"/>
    </edge>
    <edge id=":14_0" function="internal">
        <lane id=":14_0_0" index="0" speed="6.51" length="9.03" shape="992.00,2013.60 991.65,2011.15 990.60,2009.40 988.85,2008.35 986.40,2008.00"/>
        <lane id=":14_0_1" index="1" speed="8.00" length="14.19" shape="995.20,2013.60 994.65,2009.75 993.00,2007.00 990.25,2005.35 986.40,2004.80"/>
    </edge>
    <edge id=":14_2" function="internal">
        <lane id=":14_2_0" index="0" speed="13.89" length="27.20" shape="995.20,2013.60 995.20,1986.40"/>
        <lane id=":14_2_1" index="1" speed="13.89" length="27.20" shape="998.40,2013.60 998.40,1986.40"/>
    </edge>
    <edge id=":14_4" function="internal">
        <lane id=":14_4_0" index="0" speed="13.89" length="27.20" shape="1013.60,2008.00 986.40,2008.00"/>
        <lane id=":14_4_1" index="1" speed="13.89" length="27.20" shape="1013.60,2004.80 986.40,2004.80"/>
    </edge>
    <edge id=":14_6" function="internal">
        <lane id=":14_6_0" index="0" speed="11.36" length="15.07" shape="1013.60,2004.80 1005.55,2003.65 999.80,2000.20 999.68,2000.00"/>
        <lane id=":14_6_1" index="1" speed="10.36" length="7.98" shape="1013.60,2001.60 1006.95,2000.65 1005.87,2000.00"/>
    </edge>
    <edge id=":14_20" function="internal">
        <lane id=":14_20_0" index="0" speed="11.36" length="14.60" shape="999.68,2000.00 996.35,1994.45 995.20,1986.40"/>
    </edge>
    <edge id=":14_21" function="internal">
        <lane id=":14_21_0" index="0" speed="10.36" length="16.53" shape="1005.87,2000.00 1002.20,1997.80 999.35,1993.05 998.40,1986.40"/>
    </edge>
    <edge id=":14_8" function="internal">
        <lane id=":14_8_0" index="0" speed="6.51" length="9.03" shape="1008.00,1986.40 1008.35,1988.85 1009.40,1990.60 1011.15,1991.65 1013.60,1992.00"/>
    </edge>
    <edge id=":14_9" function="internal">
        <lane id=":14_9_0" index="0" speed="13.89" length="27.20" shape="1008.00,1986.40 1008.00,2013.60"/>
        <lane id=":14_9_1" index="1" speed="13.89" length="27.20" shape="1004.80,1986.40 1004.80,2013.60"/>
        <lane id=":14_9_2" index="2" speed="13.89" length="27.20" shape="1001.60,1986.40 1001.60,2013.60"/>
    </edge>
    <edge id=":14_12" function="internal">
        <lane id=":14_12_0" index="0" speed="11.39" length="11.17" shape="1001.60,1986.40 1000.65,1995.85 1000.00,1997.39"/>
        <lane id=":14_12_1" index="1" speed="10.88" length="9.57" shape="1001.60,1986.40 1000.65,1994.45 1000.00,1995.76"/>
        <lane id=":14_12_2" index="2" speed="10.36" length="7.98" shape="1001.60,1986.40 1000.65,1993.05 1000.00,1994.13"/>
    </edge>
    <edge id=":14_22" function="internal">
        <lane id=":14_22_0" index="0" speed="11.39" length="18.68" shape="1000.00,1997.39 997.80,2002.60 993.05,2006.65 986.40,2008.00"/>
    </edge>
    <edge id=":14_23" function="internal">
        <lane id=":14_23_0" index="0" speed="10.88" length="17.57" shape="1000.00,1995.76 997.80,2000.20 993.05,2003.65 986.40,2004.80"/>
    </edge>
    <edge id=":14_24" function="internal">
        <lane id=":14_24_0" index="0" speed="10.36" length="16.53" shape="1000.00,1994.13 997.80,1997.80 993.05,2000.65 986.40,2001.60"/>
    </edge>
    <edge id=":14_15" function="internal">
        <lane id=":14_15_0" index="0" speed="6.51" length="9.03" shape="986.40,1992.00 988.85,1991.65 990.60,1990.60 991.65,1988.85 992.00,1986.40"/>
    </edge>
    <edge id=":14_16" function="internal">
        <lane id=":14_16_0" index="0" speed="13.89" length="27.20" shape="986.40,1992.00 1013.60,1992.00"/>
        <lane id=":14_16_1" index="1" speed="13.89" length="27.20" shape="986.40,1995.20 1013.60,1995.20"/>
        <lane id=":14_16_2" index="2" speed="13.89" length="27.20" shape="986.40,1998.40 1013.60,1998.40"/>
    </edge>
    <edge id=":14_19" function="internal">
        <lane id=":14_19_0" index="0" speed="3.65" length="2.34" shape="986.40,1998.40 987.60,1999.20 988.00,2000.00"/>
    </edge>
    <edge id=":14_25" function="internal">
        <lane id=":14_25_0" index="0" speed="3.65" length="2.34" shape="988.00,2000.00 987.60,2000.80 986.40,2001.60"/>
    </edge>
    <edge id=":15_0" function="internal">
        <lane id=":15_0_0" index="0" speed="6.51" length="9.03" shape="1492.00,13.60 1491.65,11.15 1490.60,9.40 1488.85,8.35 1486.40,8.00"/>
        <lane id=":15_0_1" index="1" speed="8.00" length="14.19" shape="1495.20,13.60 1494.65,9.75 1493.00,7.00 1490.25,5.35 1486.40,4.80"/>
    </edge>
    <edge id=":15_2" function="internal">
        <lane id=":15_2_0" index="0" speed="10.88" length="27.14" shape="1498.40,13.60 1499.35,5.55 1502.20,-0.20 1506.95,-3.65 1513.60,-4.80"/>
        <lane id=":15_2_1" index="1" speed="10.36" length="24.51" shape="1498.40,13.60 1499.35,6.95 1502.20,2.20 1506.95,-0.65 1513.60,-1.60"/>
    </edge>
    <edge id=":15_4" function="internal">
        <lane id=":15_4_0" index="0" speed="3.65" length="2.34" shape="1498.40,13.60 1499.20,12.40 1500.00,12.00"/>
    </edge>