<?xml version="1.0" encoding="UTF-8"?>

<!-- generated on 12/07/20 10:13:03 by Eclipse SUMO netedit Version 1.7.0
<configuration xmlns:xsi="http://www.w3.org/2001/XMLSchema-instance" xsi:noNamespaceSchemaLocation="http://sumo.dlr.de/xsd/netconvertConfiguration.xsd">

    <input>
        <sumo-net-file value="E:\StevenSU\OneDrive - City University of Hong Kong\Research in CityU\Code\SUMO_MFD\Bilevel_3.0\network\GridBuffer.net.xml"/>
    </input>

    <output>
        <output-file value="E:\StevenSU\OneDrive - City University of Hong Kong\Research in CityU\Code\SUMO_MFD\Bilevel_3.0\network\GridBuffer.net.xml"/>
    </output>

    <processing>
        <geometry.min-radius.fix.railways value="false"/>
        <geometry.max-grade.fix value="false"/>
        <offset.disable-normalization value="true"/>
        <lefthand value="false"/>
    </processing>

    <junctions>
        <no-turnarounds value="true"/>
        <junctions.corner-detail value="5"/>
        <junctions.limit-turn-speed value="5.5"/>
        <rectangular-lane-cut value="false"/>
    </junctions>

    <pedestrian>
        <walkingareas value="false"/>
    </pedestrian>

    <netedit>
        <additional-files value="E:\StevenSU\OneDrive - City University of Hong Kong\Research in CityU\Code\SUMO_MFD\Bilevel_3.0\network\GridBuffer.add.xml"/>
    </netedit>

    <report>
        <aggregate-warnings value="5"/>
    </report>

</configuration>
-->
<additional xmlns:xsi="http://www.w3.org/2001/XMLSchema-instance" xsi:noNamespaceSchemaLocation="http://sumo.dlr.de/xsd/additional_file.xsd">
	<edgeData id="EdgeMesurements" file="EdgeMesurements.xml" freq="100.00" excludeEmpty='True' />
	<edgeData id="EdgeMesurements_lower" file="EdgeMesurements_lower.xml" freq="5.00" excludeEmpty='True' />
	<!-- <laneData  id="LaneMesurements" file="LaneMesurements.xml" freq="10.00" excludeEmpty='False' /> -->
	<e1Detector id="0000_in" lane="0_0" pos="1" freq="50.00" file="DetectorMesurements.xml"/>
	<e1Detector id="0000_out" lane="0_0" pos="472.2" freq="50.00" file="DetectorMesurements.xml"/>
	<e1Detector id="0001_in" lane="0_1" pos="1" freq="50.00" file="DetectorMesurements.xml"/>
	<e1Detector id="0001_out" lane="0_1" pos="472.2" freq="50.00" file="DetectorMesurements.xml"/>
	<e1Detector id="0002_in" lane="0_2" pos="1" freq="50.00" file="DetectorMesurements.xml"/>
	<e1Detector id="0002_out" lane="0_2" pos="472.2" freq="50.00" file="DetectorMesurements.xml"/>
	<e1Detector id="1000_in" lane="1_0" pos="1" freq="50.00" file="DetectorMesurements.xml"/>
	<e1Detector id="1000_out" lane="1_0" pos="472.2" freq="50.00" file="DetectorMesurements.xml"/>
	<e1Detector id="1001_in" lane="1_1" pos="1" freq="50.00" file="DetectorMesurements.xml"/>
	<e1Detector id="1001_out" lane="1_1" pos="472.2" freq="50.00" file="DetectorMesurements.xml"/>
	<e1Detector id="1002_in" lane="1_2" pos="1" freq="50.00" file="DetectorMesurements.xml"/>
	<e1Detector id="1002_out" lane="1_2" pos="472.2" freq="50.00" file="DetectorMesurements.xml"/>
	<e1Detector id="2000_in" lane="2_0" pos="1" freq="50.00" file="DetectorMesurements.xml"/>
	<e1Detector id="2000_out" lane="2_0" pos="472.2" freq="50.00" file="DetectorMesurements.xml"/>
	<e1Detector id="2001_in" lane="2_1" pos="1" freq="50.00" file="DetectorMesurements.xml"/>
	<e1Detector id="2001_out" lane="2_1" pos="472.2" freq="50.00" file="DetectorMesurements.xml"/>
	<e1Detector id="2002_in" lane="2_2" pos="1" freq="50.00" file="DetectorMesurements.xml"/>
	<e1Detector id="2002_out" lane="2_2" pos="472.2" freq="50.00" file="DetectorMesurements.xml"/>
	<e1Detector id="3000_in" lane="3_0" pos="1" freq="50.00" file="DetectorMesurements.xml"/>
	<e1Detector id="3000_out" lane="3_0" pos="472.2" freq="50.00" file="DetectorMesurements.xml"/>
	<e1Detector id="3001_in" lane="3_1" pos="1" freq="50.00" file="DetectorMesurements.xml"/>
	<e1Detector id="3001_out" lane="3_1" pos="472.2" freq="50.00" file="DetectorMesurements.xml"/>
	<e1Detector id="3002_in" lane="3_2" pos="1" freq="50.00" file="DetectorMesurements.xml"/>
	<e1Detector id="3002_out" lane="3_2" pos="472.2" freq="50.00" file="DetectorMesurements.xml"/>
	<e1Detector id="4000_in" lane="4_0" pos="1" freq="50.00" file="DetectorMesurements.xml"/>
	<e1Detector id="4000_out" lane="4_0" pos="472.2" freq="50.00" file="DetectorMesurements.xml"/>
	<e1Detector id="4001_in" lane="4_1" pos="1" freq="50.00" file="DetectorMesurements.xml"/>
	<e1Detector id="4001_out" lane="4_1" pos="472.2" freq="50.00" file="DetectorMesurements.xml"/>
	<e1Detector id="4002_in" lane="4_2" pos="1" freq="50.00" file="DetectorMesurements.xml"/>
	<e1Detector id="4002_out" lane="4_2" pos="472.2" freq="50.00" file="DetectorMesurements.xml"/>
	<e1Detector id="5000_in" lane="5_0" pos="1" freq="50.00" file="DetectorMesurements.xml"/>
	<e1Detector id="5000_out" lane="5_0" pos="472.2" freq="50.00" file="DetectorMesurements.xml"/>
	<e1Detector id="5001_in" lane="5_1" pos="1" freq="50.00" file="DetectorMesurements.xml"/>
	<e1Detector id="5001_out" lane="5_1" pos="472.2" freq="50.00" file="DetectorMesurements.xml"/>
	<e1Detector id="5002_in" lane="5_2" pos="1" freq="50.00" file="DetectorMesurements.xml"/>
	<e1Detector id="5002_out" lane="5_2" pos="472.2" freq="50.00" file="DetectorMesurements.xml"/>
	<e1Detector id="6000_in" lane="6_0" pos="1" freq="50.00" file="DetectorMesurements.xml"/>
	<e1Detector id="6000_out" lane="6_0" pos="472.2" freq="50.00" file="DetectorMesurements.xml"/>
	<e1Detector id="6001_in" lane="6_1" pos="1" freq="50.00" file="DetectorMesurements.xml"/>
	<e1Detector id="6001_out" lane="6_1" pos="472.2" freq="50.00" file="DetectorMesurements.xml"/>
	<e1Detector id="6002_in" lane="6_2" pos="1" freq="50.00" file="DetectorMesurements.xml"/>
	<e1Detector id="6002_out" lane="6_2" pos="472.2" freq="50.00" file="DetectorMesurements.xml"/>
	<e1Detector id="7000_in" lane="7_0" pos="1" freq="50.00" file="DetectorMesurements.xml"/>
	<e1Detector id="7000_out" lane="7_0" pos="472.2" freq="50.00" file="DetectorMesurements.xml"/>
	<e1Detector id="7001_in" lane="7_1" pos="1" freq="50.00" file="DetectorMesurements.xml"/>
	<e1Detector id="7001_out" lane="7_1" pos="472.2" freq="50.00" file="DetectorMesurements.xml"/>
	<e1Detector id="7002_in" lane="7_2" pos="1" freq="50.00" file="DetectorMesurements.xml"/>
	<e1Detector id="7002_out" lane="7_2" pos="472.2" freq="50.00" file="DetectorMesurements.xml"/>
	<e1Detector id="8000_in" lane="8_0" pos="1" freq="50.00" file="DetectorMesurements.xml"/>
	<e1Detector id="8000_out" lane="8_0" pos="472.2" freq="50.00" file="DetectorMesurements.xml"/>
	<e1Detector id="8001_in" lane="8_1" pos="1" freq="50.00" file="DetectorMesurements.xml"/>
	<e1Detector id="8001_out" lane="8_1" pos="472.2" freq="50.00" file="DetectorMesurements.xml"/>
	<e1Detector id="8002_in" lane="8_2" pos="1" freq="50.00" file="DetectorMesurements.xml"/>
	<e1Detector id="8002_out" lane="8_2" pos="472.2" freq="50.00" file="DetectorMesurements.xml"/>
	<e1Detector id="9000_in" lane="9_0" pos="1" freq="50.00" file="DetectorMesurements.xml"/>
	<e1Detector id="9000_out" lane="9_0" pos="472.2" freq="50.00" file="DetectorMesurements.xml"/>
	<e1Detector id="9001_in" lane="9_1" pos="1" freq="50.00" file="DetectorMesurements.xml"/>
	<e1Detector id="9001_out" lane="9_1" pos="472.2" freq="50.00" file="DetectorMesurements.xml"/>
	<e1Detector id="9002_in" lane="9_2" pos="1" freq="50.00" file="DetectorMesurements.xml"/>
	<e1Detector id="9002_out" lane="9_2" pos="472.2" freq="50.00" file="DetectorMesurements.xml"/>
	<e1Detector id="10000_in" lane="10_0" pos="1" freq="50.00" file="DetectorMesurements.xml"/>
	<e1Detector id="10000_out" lane="10_0" pos="472.2" freq="50.00" file="DetectorMesurements.xml"/>
	<e1Detector id="10001_in" lane="10_1" pos="1" freq="50.00" file="DetectorMesurements.xml"/>
	<e1Detector id="10001_out" lane="10_1" pos="472.2" freq="50.00" file="DetectorMesurements.xml"/>
	<e1Detector id="10002_in" lane="10_2" pos="1" freq="50.00" file="DetectorMesurements.xml"/>
	<e1Detector id="10002_out" lane="10_2" pos="472.2" freq="50.00" file="DetectorMesurements.xml"/>
	<e1Detector id="11000_in" lane="11_0" pos="1" freq="50.00" file="DetectorMesurements.xml"/>
	<e1Detector id="11000_out" lane="11_0" pos="472.2" freq="50.00" file="DetectorMesurements.xml"/>
	<e1Detector id="11001_in" lane="11_1" pos="1" freq="50.00" file="DetectorMesurements.xml"/>
	<e1Detector id="11001_out" lane="11_1" pos="472.2" freq="50.00" file="DetectorMesurements.xml"/>
	<e1Detector id="11002_in" lane="11_2" pos="1" freq="50.00" file="DetectorMesurements.xml"/>
	<e1Detector id="11002_out" lane="11_2" pos="472.2" freq="50.00" file="DetectorMesurements.xml"/>
	<e1Detector id="12000_in" lane="12_0" pos="1" freq="50.00" file="DetectorMesurements.xml"/>
	<e1Detector id="12000_out" lane="12_0" pos="472.2" freq="50.00" file="DetectorMesurements.xml"/>
	<e1Detector id="12001_in" lane="12_1" pos="1" freq="50.00" file="DetectorMesurements.xml"/>
	<e1Detector id="12001_out" lane="12_1" pos="472.2" freq="50.00" file="DetectorMesurements.xml"/>
	<e1Detector id="12002_in" lane="12_2" pos="1" freq="50.00" file="DetectorMesurements.xml"/>
	<e1Detector id="12002_out" lane="12_2" pos="472.2" freq="50.00" file="DetectorMesurements.xml"/>
	<e1Detector id="13000_in" lane="13_0" pos="1" freq="50.00" file="DetectorMesurements.xml"/>
	<e1Detector id="13000_out" lane="13_0" pos="472.2" freq="50.00" file="DetectorMesurements.xml"/>
	<e1Detector id="13001_in" lane="13_1" pos="1" freq="50.00" file="DetectorMesurements.xml"/>
	<e1Detector id="13001_out" lane="13_1" pos="472.2" freq="50.00" file="DetectorMesurements.xml"/>
	<e1Detector id="13002_in" lane="13_2" pos="1" freq="50.00" file="DetectorMesurements.xml"/>
	<e1Detector id="13002_out" lane="13_2" pos="472.2" freq="50.00" file="DetectorMesurements.xml"/>
	<e1Detector id="14000_in" lane="14_0" pos="1" freq="50.00" file="DetectorMesurements.xml"/>
	<e1Detector id="14000_out" lane="14_0" pos="472.2" freq="50.00" file="DetectorMesurements.xml"/>
	<e1Detector id="14001_in" lane="14_1" pos="1" freq="50.00" file="DetectorMesurements.xml"/>
	<e1Detector id="14001_out" lane="14_1" pos="472.2" freq="50.00" file="DetectorMesurements.xml"/>
	<e1Detector id="14002_in" lane="14_2" pos="1" freq="50.00" file="DetectorMesurements.xml"/>
	<e1Detector id="14002_out" lane="14_2" pos="472.2" freq="50.00" file="DetectorMesurements.xml"/>
	<e1Detector id="15000_in" lane="15_0" pos="1" freq="50.00" file="DetectorMesurements.xml"/>
	<e1Detector id="15000_out" lane="15_0" pos="472.2" freq="50.00" file="DetectorMesurements.xml"/>
	<e1Detector id="15001_in" lane="15_1" pos="1" freq="50.00" file="DetectorMesurements.xml"/>
	<e1Detector id="15001_out" lane="15_1" pos="472.2" freq="50.00" file="DetectorMesurements.xml"/>
	<e1Detector id="15002_in" lane="15_2" pos="1" freq="50.00" file="DetectorMesurements.xml"/>
	<e1Detector id="15002_out" lane="15_2" pos="472.2" freq="50.00" file="DetectorMesurements.xml"/>
	<e1Detector id="16000_in" lane="16_0" pos="1" freq="50.00" file="DetectorMesurements.xml"/>
	<e1Detector id="16000_out" lane="16_0" pos="472.2" freq="50.00" file="DetectorMesurements.xml"/>
	<e1Detector id="16001_in" lane="16_1" pos="1" freq="50.00" file="DetectorMesurements.xml"/>
	<e1Detector id="16001_out" lane="16_1" pos="472.2" freq="50.00" file="DetectorMesurements.xml"/>
	<e1Detector id="16002_in" lane="16_2" pos="1" freq="50.00" file="DetectorMesurements.xml"/>
	<e1Detector id="16002_out" lane="16_2" pos="472.2" freq="50.00" file="DetectorMesurements.xml"/>
	<e1Detector id="17000_in" lane="17_0" pos="1" freq="50.00" file="DetectorMesurements.xml"/>
	<e1Detector id="17000_out" lane="17_0" pos="472.2" freq="50.00" file="DetectorMesurements.xml"/>
	<e1Detector id="17001_in" lane="17_1" pos="1" freq="50.00" file="DetectorMesurements.xml"/>
	<e1Detector id="17001_out" lane="17_1" pos="472.2" freq="50.00" file="DetectorMesurements.xml"/>
	<e1Detector id="17002_in" lane="17_2" pos="1" freq="50.00" file="DetectorMesurements.xml"/>
	<e1Detector id="17002_out" lane="17_2" pos="472.2" freq="50.00" file="DetectorMesurements.xml"/>
	<e1Detector id="18000_in" lane="18_0" pos="1" freq="50.00" file="DetectorMesurements.xml"/>
	<e1Detector id="18000_out" lane="18_0" pos="472.2" freq="50.00" file="DetectorMesurements.xml"/>
	<e1Detector id="18001_in" lane="18_1" pos="1" freq="50.00" file="DetectorMesurements.xml"/>
	<e1Detector id="18001_out" lane="18_1" pos="472.2" freq="50.00" file="DetectorMesurements.xml"/>
	<e1Detector id="18002_in" lane="18_2" pos="1" freq="50.00" file="DetectorMesurements.xml"/>
	<e1Detector id="18002_out" lane="18_2" pos="472.2" freq="50.00" file="DetectorMesurements.xml"/>
	<e1Detector id="19000_in" lane="19_0" pos="1" freq="50.00" file="DetectorMesurements.xml"/>
	<e1Detector id="19000_out" lane="19_0" pos="472.2" freq="50.00" file="DetectorMesurements.xml"/>
	<e1Detector id="19001_in" lane="19_1" pos="1" freq="50.00" file="DetectorMesurements.xml"/>
	<e1Detector id="19001_out" lane="19_1" pos="472.2" freq="50.00" file="DetectorMesurements.xml"/>
	<e1Detector id="19002_in" lane="19_2" pos="1" freq="50.00" file="DetectorMesurements.xml"/>
	<e1Detector id="19002_out" lane="19_2" pos="472.2" freq="50.00" file="DetectorMesurements.xml"/>
	<e1Detector id="20000_in" lane="20_0" pos="1" freq="50.00" file="DetectorMesurements.xml"/>
	<e1Detector id="20000_out" lane="20_0" pos="472.2" freq="50.00" file="DetectorMesurements.xml"/>
	<e1Detector id="20001_in" lane="20_1" pos="1" freq="50.00" file="DetectorMesurements.xml"/>
	<e1Detector id="20001_out" lane="20_1" pos="472.2" freq="50.00" file="DetectorMesurements.xml"/>
	<e1Detector id="20002_in" lane="20_2" pos="1" freq="50.00" file="DetectorMesurements.xml"/>
	<e1Detector id="20002_out" lane="20_2" pos="472.2" freq="50.00" file="DetectorMesurements.xml"/>
	<e1Detector id="21000_in" lane="21_0" pos="1" freq="50.00" file="DetectorMesurements.xml"/>
	<e1Detector id="21000_out" lane="21_0" pos="472.2" freq="50.00" file="DetectorMesurements.xml"/>
	<e1Detector id="21001_in" lane="21_1" pos="1" freq="50.00" file="DetectorMesurements.xml"/>
	<e1Detector id="21001_out" lane="21_1" pos="472.2" freq="50.00" file="DetectorMesurements.xml"/>
	<e1Detector id="21002_in" lane="21_2" pos="1" freq="50.00" file="DetectorMesurements.xml"/>
	<e1Detector id="21002_out" lane="21_2" pos="472.2" freq="50.00" file="DetectorMesurements.xml"/>
	<e1Detector id="22000_in" lane="22_0" pos="1" freq="50.00" file="DetectorMesurements.xml"/>
	<e1Detector id="22000_out" lane="22_0" pos="472.2" freq="50.00" file="DetectorMesurements.xml"/>
	<e1Detector id="22001_in" lane="22_1" pos="1" freq="50.00" file="DetectorMesurements.xml"/>
	<e1Detector id="22001_out" lane="22_1" pos="472.2" freq="50.00" file="DetectorMesurements.xml"/>
	<e1Detector id="22002_in" lane="22_2" pos="1" freq="50.00" file="DetectorMesurements.xml"/>
	<e1Detector id="22002_out" lane="22_2" pos="472.2" freq="50.00" file="DetectorMesurements.xml"/>
	<e1Detector id="23000_in" lane="23_0" pos="1" freq="50.00" file="DetectorMesurements.xml"/>
	<e1Detector id="23000_out" lane="23_0" pos="472.2" freq="50.00" file="DetectorMesurements.xml"/>
	<e1Detector id="23001_in" lane="23_1" pos="1" freq="50.00" file="DetectorMesurements.xml"/>
	<e1Detector id="23001_out" lane="23_1" pos="472.2" freq="50.00" file="DetectorMesurements.xml"/>
	<e1Detector id="23002_in" lane="23_2" pos="1" freq="50.00" file="DetectorMesurements.xml"/>
	<e1Detector id="23002_out" lane="23_2" pos="472.2" freq="50.00" file="DetectorMesurements.xml"/>
	<e1Detector id="24000_in" lane="24_0" pos="1" freq="50.00" file="DetectorMesurements.xml"/>
	<e1Detector id="24000_out" lane="24_0" pos="472.2" freq="50.00" file="DetectorMesurements.xml"/>
	<e1Detector id="24001_in" lane="24_1" pos="1" freq="50.00" file="DetectorMesurements.xml"/>
	<e1Detector id="24001_out" lane="24_1" pos="472.2" freq="50.00" file="DetectorMesurements.xml"/>
	<e1Detector id="24002_in" lane="24_2" pos="1" freq="50.00" file="DetectorMesurements.xml"/>
	<e1Detector id="24002_out" lane="24_2" pos="472.2" freq="50.00" file="DetectorMesurements.xml"/>
	<e1Detector id="25000_in" lane="25_0" pos="1" freq="50.00" file="DetectorMesurements.xml"/>
	<e1Detector id="25000_out" lane="25_0" pos="472.2" freq="50.00" file="DetectorMesurements.xml"/>
	<e1Detector id="25001_in" lane="25_1" pos="1" freq="50.00" file="DetectorMesurements.xml"/>
	<e1Detector id="25001_out" lane="25_1" pos="472.2" freq="50.00" file="DetectorMesurements.xml"/>
	<e1Detector id="25002_in" lane="25_2" pos="1" freq="50.00" file="DetectorMesurements.xml"/>
	<e1Detector id="25002_out" lane="25_2" pos="472.2" freq="50.00" file="DetectorMesurements.xml"/>
	<e1Detector id="26000_in" lane="26_0" pos="1" freq="50.00" file="DetectorMesurements.xml"/>
	<e1Detector id="26000_out" lane="26_0" pos="472.2" freq="50.00" file="DetectorMesurements.xml"/>
	<e1Detector id="26001_in" lane="26_1" pos="1" freq="50.00" file="DetectorMesurements.xml"/>
	<e1Detector id="26001_out" lane="26_1" pos="472.2" freq="50.00" file="DetectorMesurements.xml"/>
	<e1Detector id="26002_in" lane="26_2" pos="1" freq="50.00" file="DetectorMesurements.xml"/>
	<e1Detector id="26002_out" lane="26_2" pos="472.2" freq="50.00" file="DetectorMesurements.xml"/>
	<e1Detector id="27000_in" lane="27_0" pos="1" freq="50.00" file="DetectorMesurements.xml"/>
	<e1Detector id="27000_out" lane="27_0" pos="472.2" freq="50.00" file="DetectorMesurements.xml"/>
	<e1Detector id="27001_in" lane="27_1" pos="1" freq="50.00" file="DetectorMesurements.xml"/>
	<e1Detector id="27001_out" lane="27_1" pos="472.2" freq="50.00" file="DetectorMesurements.xml"/>
	<e1Detector id="27002_in" lane="27_2" pos="1" freq="50.00" file="DetectorMesurements.xml"/>
	<e1Detector id="27002_out" lane="27_2" pos="472.2" freq="50.00" file="DetectorMesurements.xml"/>
	<e1Detector id="28000_in" lane="28_0" pos="1" freq="50.00" file="DetectorMesurements.xml"/>
	<e1Detector id="28000_out" lane="28_0" pos="472.2" freq="50.00" file="DetectorMesurements.xml"/>
	<e1Detector id="28001_in" lane="28_1" pos="1" freq="50.00" file="DetectorMesurements.xml"/>
	<e1Detector id="28001_out" lane="28_1" pos="472.2" freq="50.00" file="DetectorMesurements.xml"/>
	<e1Detector id="28002_in" lane="28_2" pos="1" freq="50.00" file="DetectorMesurements.xml"/>
	<e1Detector id="28002_out" lane="28_2" pos="472.2" freq="50.00" file="DetectorMesurements.xml"/>
	<e1Detector id="29000_in" lane="29_0" pos="1" freq="50.00" file="DetectorMesurements.xml"/>
	<e1Detector id="29000_out" lane="29_0" pos="472.2" freq="50.00" file="DetectorMesurements.xml"/>
	<e1Detector id="29001_in" lane="29_1" pos="1" freq="50.00" file="DetectorMesurements.xml"/>
	<e1Detector id="29001_out" lane="29_1" pos="472.2" freq="50.00" file="DetectorMesurements.xml"/>
	<e1Detector id="29002_in" lane="29_2" pos="1" freq="50.00" file="DetectorMesurements.xml"/>
	<e1Detector id="29002_out" lane="29_2" pos="472.2" freq="50.00" file="DetectorMesurements.xml"/>
	<e1Detector id="30000_in" lane="30_0" pos="1" freq="50.00" file="DetectorMesurements.xml"/>
	<e1Detector id="30000_out" lane="30_0" pos="472.2" freq="50.00" file="DetectorMesurements.xml"/>
	<e1Detector id="30001_in" lane="30_1" pos="1" freq="50.00" file="DetectorMesurements.xml"/>
	<e1Detector id="30001_out" lane="30_1" pos="472.2" freq="50.00" file="DetectorMesurements.xml"/>
	<e1Detector id="30002_in" lane="30_2" pos="1" freq="50.00" file="DetectorMesurements.xml"/>
	<e1Detector id="30002_out" lane="30_2" pos="472.2" freq="50.00" file="DetectorMesurements.xml"/>
	<e1Detector id="31000_in" lane="31_0" pos="1" freq="50.00" file="DetectorMesurements.xml"/>
	<e1Detector id="31000_out" lane="31_0" pos="472.2" freq="50.00" file="DetectorMesurements.xml"/>
	<e1Detector id="31001_in" lane="31_1" pos="1" freq="50.00" file="DetectorMesurements.xml"/>
	<e1Detector id="31001_out" lane="31_1" pos="472.2" freq="50.00" file="DetectorMesurements.xml"/>
	<e1Detector id="31002_in" lane="31_2" pos="1" freq="50.00" file="DetectorMesurements.xml"/>
	<e1Detector id="31002_out" lane="31_2" pos="472.2" freq="50.00" file="DetectorMesurements.xml"/>
	<e1Detector id="32000_in" lane="32_0" pos="1" freq="50.00" file="DetectorMesurements.xml"/>
	<e1Detector id="32000_out" lane="32_0" pos="472.2" freq="50.00" file="DetectorMesurements.xml"/>
	<e1Detector id="32001_in" lane="32_1" pos="1" freq="50.00" file="DetectorMesurements.xml"/>
	<e1Detector id="32001_out" lane="32_1" pos="472.2" freq="50.00" file="DetectorMesurements.xml"/>
	<e1Detector id="32002_in" lane="32_2" pos="1" freq="50.00" file="DetectorMesurements.xml"/>
	<e1Detector id="32002_out" lane="32_2" pos="472.2" freq="50.00" file="DetectorMesurements.xml"/>
	<e1Detector id="33000_in" lane="33_0" pos="1" freq="50.00" file="DetectorMesurements.xml"/>
	<e1Detector id="33000_out" lane="33_0" pos="472.2" freq="50.00" file="DetectorMesurements.xml"/>
	<e1Detector id="33001_in" lane="33_1" pos="1" freq="50.00" file="DetectorMesurements.xml"/>
	<e1Detector id="33001_out" lane="33_1" pos="472.2" freq="50.00" file="DetectorMesurements.xml"/>
	<e1Detector id="33002_in" lane="33_2" pos="1" freq="50.00" file="DetectorMesurements.xml"/>
	<e1Detector id="33002_out" lane="33_2" pos="472.2" freq="50.00" file="DetectorMesurements.xml"/>
	<e1Detector id="34000_in" lane="34_0" pos="1" freq="50.00" file="DetectorMesurements.xml"/>
	<e1Detector id="34000_out" lane="34_0" pos="472.2" freq="50.00" file="DetectorMesurements.xml"/>
	<e1Detector id="34001_in" lane="34_1" pos="1" freq="50.00" file="DetectorMesurements.xml"/>
	<e1Detector id="34001_out" lane="34_1" pos="472.2" freq="50.00" file="DetectorMesurements.xml"/>
	<e1Detector id="34002_in" lane="34_2" pos="1" freq="50.00" file="DetectorMesurements.xml"/>
	<e1Detector id="34002_out" lane="34_2" pos="472.2" freq="50.00" file="DetectorMesurements.xml"/>
	<e1Detector id="35000_in" lane="35_0" pos="1" freq="50.00" file="DetectorMesurements.xml"/>
	<e1Detector id="35000_out" lane="35_0" pos="472.2" freq="50.00" file="DetectorMesurements.xml"/>
	<e1Detector id="35001_in" lane="35_1" pos="1" freq="50.00" file="DetectorMesurements.xml"/>
	<e1Detector id="35001_out" lane="35_1" pos="472.2" freq="50.00" file="DetectorMesurements.xml"/>
	<e1Detector id="35002_in" lane="35_2" pos="1" freq="50.00" file="DetectorMesurements.xml"/>
	<e1Detector id="35002_out" lane="35_2" pos="472.2" freq="50.00" file="DetectorMesurements.xml"/>
	<e1Detector id="36000_in" lane="36_0" pos="1" freq="50.00" file="DetectorMesurements.xml"/>
	<e1Detector id="36000_out" lane="36_0" pos="472.2" freq="50.00" file="DetectorMesurements.xml"/>
	<e1Detector id="36001_in" lane="36_1" pos="1" freq="50.00" file="DetectorMesurements.xml"/>
	<e1Detector id="36001_out" lane="36_1" pos="472.2" freq="50.00" file="DetectorMesurements.xml"/>
	<e1Detector id="36002_in" lane="36_2" pos="1" freq="50.00" file="DetectorMesurements.xml"/>
	<e1Detector id="36002_out" lane="36_2" pos="472.2" freq="50.00" file="DetectorMesurements.xml"/>
	<e1Detector id="37000_in" lane="37_0" pos="1" freq="50.00" file="DetectorMesurements.xml"/>
	<e1Detector id="37000_out" lane="37_0" pos="472.2" freq="50.00" file="DetectorMesurements.xml"/>
	<e1Detector id="37001_in" lane="37_1" pos="1" freq="50.00" file="DetectorMesurements.xml"/>
	<e1Detector id="37001_out" lane="37_1" pos="472.2" freq="50.00" file="DetectorMesurements.xml"/>
	<e1Detector id="37002_in" lane="37_2" pos="1" freq="50.00" file="DetectorMesurements.xml"/>
	<e1Detector id="37002_out" lane="37_2" pos="472.2" freq="50.00" file="DetectorMesurements.xml"/>
	<e1Detector id="38000_in" lane="38_0" pos="1" freq="50.00" file="DetectorMesurements.xml"/>
	<e1Detector id="38000_out" lane="38_0" pos="472.2" freq="50.00" file="DetectorMesurements.xml"/>
	<e1Detector id="38001_in" lane="38_1" pos="1" freq="50.00" file="DetectorMesurements.xml"/>
	<e1Detector id="38001_out" lane="38_1" pos="472.2" freq="50.00" file="DetectorMesurements.xml"/>
	<e1Detector id="38002_in" lane="38_2" pos="1" freq="50.00" file="DetectorMesurements.xml"/>
	<e1Detector id="38002_out" lane="38_2" pos="472.2" freq="50.00" file="DetectorMesurements.xml"/>
	<e1Detector id="39000_in" lane="39_0" pos="1" freq="50.00" file="DetectorMesurements.xml"/>
	<e1Detector id="39000_out" lane="39_0" pos="472.2" freq="50.00" file="DetectorMesurements.xml"/>
	<e1Detector id="39001_in" lane="39_1" pos="1" freq="50.00" file="DetectorMesurements.xml"/>
	<e1Detector id="39001_out" lane="39_1" pos="472.2" freq="50.00" file="DetectorMesurements.xml"/>
	<e1Detector id="39002_in" lane="39_2" pos="1" freq="50.00" file="DetectorMesurements.xml"/>
	<e1Detector id="39002_out" lane="39_2" pos="472.2" freq="50.00" file="DetectorMesurements.xml"/>
	<e1Detector id="40000_in" lane="40_0" pos="1" freq="50.00" file="DetectorMesurements.xml"/>
	<e1Detector id="40000_out" lane="40_0" pos="472.2" freq="50.00" file="DetectorMesurements.xml"/>
	<e1Detector id="40001_in" lane="40_1" pos="1" freq="50.00" file="DetectorMesurements.xml"/>
	<e1Detector id="40001_out" lane="40_1" pos="472.2" freq="50.00" file="DetectorMesurements.xml"/>
	<e1Detector id="40002_in" lane="40_2" pos="1" freq="50.00" file="DetectorMesurements.xml"/>
	<e1Detector id="40002_out" lane="40_2" pos="472.2" freq="50.00" file="DetectorMesurements.xml"/>
	<e1Detector id="41000_in" lane="41_0" pos="1" freq="50.00" file="DetectorMesurements.xml"/>
	<e1Detector id="41000_out" lane="41_0" pos="472.2" freq="50.00" file="DetectorMesurements.xml"/>
	<e1Detector id="41001_in" lane="41_1" pos="1" freq="50.00" file="DetectorMesurements.xml"/>
	<e1Detector id="41001_out" lane="41_1" pos="472.2" freq="50.00" file="DetectorMesurements.xml"/>
	<e1Detector id="41002_in" lane="41_2" pos="1" freq="50.00" file="DetectorMesurements.xml"/>
	<e1Detector id="41002_out" lane="41_2" pos="472.2" freq="50.00" file="DetectorMesurements.xml"/>
	<e1Detector id="42000_in" lane="42_0" pos="1" freq="50.00" file="DetectorMesurements.xml"/>
	<e1Detector id="42000_out" lane="42_0" pos="472.2" freq="50.00" file="DetectorMesurements.xml"/>
	<e1Detector id="42001_in" lane="42_1" pos="1" freq="50.00" file="DetectorMesurements.xml"/>
	<e1Detector id="42001_out" lane="42_1" pos="472.2" freq="50.00" file="DetectorMesurements.xml"/>
	<e1Detector id="42002_in" lane="42_2" pos="1" freq="50.00" file="DetectorMesurements.xml"/>
	<e1Detector id="42002_out" lane="42_2" pos="472.2" freq="50.00" file="DetectorMesurements.xml"/>
	<e1Detector id="43000_in" lane="43_0" pos="1" freq="50.00" file="DetectorMesurements.xml"/>
	<e1Detector id="43000_out" lane="43_0" pos="472.2" freq="50.00" file="DetectorMesurements.xml"/>
	<e1Detector id="43001_in" lane="43_1" pos="1" freq="50.00" file="DetectorMesurements.xml"/>
	<e1Detector id="43001_out" lane="43_1" pos="472.2" freq="50.00" file="DetectorMesurements.xml"/>
	<e1Detector id="43002_in" lane="43_2" pos="1" freq="50.00" file="DetectorMesurements.xml"/>
	<e1Detector id="43002_out" lane="43_2" pos="472.2" freq="50.00" file="DetectorMesurements.xml"/>
	<e1Detector id="44000_in" lane="44_0" pos="1" freq="50.00" file="DetectorMesurements.xml"/>
	<e1Detector id="44000_out" lane="44_0" pos="472.2" freq="50.00" file="DetectorMesurements.xml"/>
	<e1Detector id="44001_in" lane="44_1" pos="1" freq="50.00" file="DetectorMesurements.xml"/>
	<e1Detector id="44001_out" lane="44_1" pos="472.2" freq="50.00" file="DetectorMesurements.xml"/>
	<e1Detector id="44002_in" lane="44_2" pos="1" freq="50.00" file="DetectorMesurements.xml"/>
	<e1Detector id="44002_out" lane="44_2" pos="472.2" freq="50.00" file="DetectorMesurements.xml"/>
	<e1Detector id="45000_in" lane="45_0" pos="1" freq="50.00" file="DetectorMesurements.xml"/>
	<e1Detector id="45000_out" lane="45_0" pos="472.2" freq="50.00" file="DetectorMesurements.xml"/>
	<e1Detector id="45001_in" lane="45_1" pos="1" freq="50.00" file="DetectorMesurements.xml"/>
	<e1Detector id="45001_out" lane="45_1" pos="472.2" freq="50.00" file="DetectorMesurements.xml"/>
	<e1Detector id="45002_in" lane="45_2" pos="1" freq="50.00" file="DetectorMesurements.xml"/>
	<e1Detector id="45002_out" lane="45_2" pos="472.2" freq="50.00" file="DetectorMesurements.xml"/>
	<e1Detector id="46000_in" lane="46_0" pos="1" freq="50.00" file="DetectorMesurements.xml"/>
	<e1Detector id="46000_out" lane="46_0" pos="472.2" freq="50.00" file="DetectorMesurements.xml"/>
	<e1Detector id="46001_in" lane="46_1" pos="1" freq="50.00" file="DetectorMesurements.xml"/>
	<e1Detector id="46001_out" lane="46_1" pos="472.2" freq="50.00" file="DetectorMesurements.xml"/>
	<e1Detector id="46002_in" lane="46_2" pos="1" freq="50.00" file="DetectorMesurements.xml"/>
	<e1Detector id="46002_out" lane="46_2" pos="472.2" freq="50.00" file="DetectorMesurements.xml"/>
	<e1Detector id="47000_in" lane="47_0" pos="1" freq="50.00" file="DetectorMesurements.xml"/>
	<e1Detector id="47000_out" lane="47_0" pos="472.2" freq="50.00" file="DetectorMesurements.xml"/>
	<e1Detector id="47001_in" lane="47_1" pos="1" freq="50.00" file="DetectorMesurements.xml"/>
	<e1Detector id="47001_out" lane="47_1" pos="472.2" freq="50.00" file="DetectorMesurements.xml"/>
	<e1Detector id="47002_in" lane="47_2" pos="1" freq="50.00" file="DetectorMesurements.xml"/>
	<e1Detector id="47002_out" lane="47_2" pos="472.2" freq="50.00" file="DetectorMesurements.xml"/>
	<e1Detector id="48000_in" lane="48_0" pos="1" freq="50.00" file="DetectorMesurements.xml"/>
	<e1Detector id="48000_out" lane="48_0" pos="472.2" freq="50.00" file="DetectorMesurements.xml"/>
	<e1Detector id="48001_in" lane="48_1" pos="1" freq="50.00" file="DetectorMesurements.xml"/>
	<e1Detector id="48001_out" lane="48_1" pos="472.2" freq="50.00" file="DetectorMesurements.xml"/>
	<e1Detector id="48002_in" lane="48_2" pos="1" freq="50.00" file="DetectorMesurements.xml"/>
	<e1Detector id="48002_out" lane="48_2" pos="472.2" freq="50.00" file="DetectorMesurements.xml"/>
	<e1Detector id="49000_in" lane="49_0" pos="1" freq="50.00" file="DetectorMesurements.xml"/>