<routes>
	<vType id="Car0" carFollowModel="IDM" accel="2.6" decel="4.5" tau="1.5" sigma="0.5" length="5" minGap="2.5" maxSpeed="18" departLane="best"/>
		<vehicles>
			<flow id="F290600" begin="0" end="100" vehsPerHour="119" type="Car0" departLane="best" departSpeed="random" from="92" to="21"/>
			<flow id="F290700" begin="0" end="100" vehsPerHour="148" type="Car0" departLane="best" departSpeed="random" from="92" to="25"/>
			<flow id="F290800" begin="0" end="100" vehsPerHour="157" type="Car0" departLane="best" departSpeed="random" from="92" to="10"/>
			<flow id="F291100" begin="0" end="100" vehsPerHour="139" type="Car0" departLane="best" departSpeed="random" from="92" to="32"/>
			<flow id="F291200" begin="0" end="100" vehsPerHour="135" type="Car0" departLane="best" departSpeed="random" from="92" to="56"/>
			<flow id="F291300" begin="0" end="100" vehsPerHour="140" type="Car0" departLane="best" departSpeed="random" from="92" to="60"/>
			<flow id="F291600" begin="0" end="100" vehsPerHour="141" type="Car0" departLane="best" departSpeed="random" from="92" to="50"/>
			<flow id="F291700" begin="0" end="100" vehsPerHour="130" type="Car0" departLane="best" departSpeed="random" from="92" to="41"/>
			<flow id="F291800" begin="0" end="100" vehsPerHour="117" type="Car0" departLane="best" departSpeed="random" from="92" to="75"/>
			<flow id="F300600" begin="0" end="100" vehsPerHour="125" type="Car0" departLane="best" departSpeed="random" from="93" to="14"/>
			<flow id="F300700" begin="0" end="100" vehsPerHour="126" type="Car0" departLane="best" departSpeed="random" from="93" to="7"/>
			<flow id="F300800" begin="0" end="100" vehsPerHour="145" type="Car0" departLane="best" departSpeed="random" from="93" to="42"/>
			<flow id="F301100" begin="0" end="100" vehsPerHour="125" type="Car0" departLane="best" departSpeed="random" from="93" to="19"/>
			<flow id="F301200" begin="0" end="100" vehsPerHour="148" type="Car0" departLane="best" departSpeed="random" from="93" to="36"/>
			<flow id="F301300" begin="0" end="100" vehsPerHour="130" type="Car0" departLane="best" departSpeed="random" from="93" to="60"/>
			<flow id="F301600" begin="0" end="100" vehsPerHour="158" type="Car0" departLane="best" departSpeed="random" from="93" to="50"/>
			<flow id="F301700" begin="0" end="100" vehsPerHour="154" type="Car0" departLane="best" departSpeed="random" from="93" to="72"/>
			<flow id="F301800" begin="0" end="100" vehsPerHour="111" type="Car0" departLane="best" departSpeed="random" from="93" to="58"/>
			<flow id="F310600" begin="0" end="100" vehsPerHour="102" type="Car0" departLane="best" departSpeed="random" from="94" to="14"/>
			<flow id="F310700" begin="0" end="100" vehsPerHour="159" type="Car0" departLane="best" departSpeed="random" from="94" to="25"/>
			<flow id="F310800" begin="0" end="100" vehsPerHour="148" type="Car0" departLane="best" departSpeed="random" from="94" to="29"/>
			<flow id="F311100" begin="0" end="100" vehsPerHour="151" type="Car0" departLane="best" departSpeed="random" from="94" to="52"/>
			<flow id="F311200" begin="0" end="100" vehsPerHour="153" type="Car0" departLane="best" departSpeed="random" from="94" to="43"/>
			<flow id="F311300" begin="0" end="100" vehsPerHour="133" type="Car0" departLane="best" departSpeed="random" from="94" to="40"/>
			<flow id="F311600" begin="0" end="100" vehsPerHour="148" type="Car0" departLane="best" departSpeed="random" from="94" to="50"/>
			<flow id="F311700" begin="0" end="100" vehsPerHour="139" type="Car0" departLane="best" departSpeed="random" from="94" to="61"/>
			<flow id="F311800" begin="0" end="100" vehsPerHour="155" type="Car0" departLane="best" departSpeed="random" from="94" to="45"/>
			<flow id="F320600" begin="0" end="100" vehsPerHour="127" type="Car0" departLane="best" departSpeed="random" from="95" to="34"/>
			<flow id="F320700" begin="0" end="100" vehsPerHour="136" type="Car0" departLane="best" departSpeed="random" from="95" to="25"/>
			<flow id="F320800" begin="0" end="100" vehsPerHour="128" type="Car0" departLane="best" departSpeed="random" from="95" to="29"/>
			<flow id="F321100" begin="0" end="100" vehsPerHour="142" type="Car0" departLane="best" departSpeed="random" from="95" to="19"/>
			<flow id="F321200" begin="0" end="100" vehsPerHour="125" type="Car0" departLane="best" departSpeed="random" from="95" to="43"/>
			<flow id="F321300" begin="0" end="100" vehsPerHour="142" type="Car0" departLane="best" departSpeed="random" from="95" to="47"/>
			<flow id="F321600" begin="0" end="100" vehsPerHour="128" type="Car0" departLane="best" departSpeed="random" from="95" to="37"/>
			<flow id="F321700" begin="0" end="100" vehsPerHour="137" type="Car0" departLane="best" departSpeed="random" from="95" to="61"/>
			<flow id="F321800" begin="0" end="100" vehsPerHour="138" type="Car0" departLane="best" departSpeed="random" from="95" to="45"/>
			<flow id="F60700" begin="0" end="100" vehsPerHour="12" type="Car0" departLane="best" departSpeed="random" from="17" to="18"/>
			<flow id="F60800" begin="0" end="100" vehsPerHour="11" type="Car0" departLane="best" departSpeed="random" from="19" to="22"/>
			<flow id="F61100" begin="0" end="100" vehsPerHour="11" type="Car0" departLane="best" departSpeed="random" from="19" to="52"/>
			<flow id="F61200" begin="0" end="100" vehsPerHour="10" type="Car0" departLane="best" departSpeed="random" from="17" to="23"/>
			<flow id="F61300" begin="0" end="100" vehsPerHour="12" type="Car0" departLane="best" departSpeed="random" from="17" to="60"/>
			<flow id="F61600" begin="0" end="100" vehsPerHour="10" type="Car0" departLane="best" departSpeed="random" from="16" to="57"/>
			<flow id="F61700" begin="0" end="100" vehsPerHour="14" type="Car0" departLane="best" departSpeed="random" from="19" to="41"/>
			<flow id="F61800" begin="0" end="100" vehsPerHour="11" type="Car0" departLane="best" departSpeed="random" from="16" to="45"/>
			<flow id="F70600" begin="0" end="100" vehsPerHour="10" type="Car0" departLane="best" departSpeed="random" from="22" to="14"/>
			<flow id="F71100" begin="0" end="100" vehsPerHour="11" type="Car0" departLane="best" departSpeed="random" from="21" to="52"/>
			<flow id="F71200" begin="0" end="100" vehsPerHour="13" type="Car0" departLane="best" departSpeed="random" from="20" to="56"/>
			<flow id="F71300" begin="0" end="100" vehsPerHour="13" type="Car0" departLane="best" departSpeed="random" from="21" to="27"/>
			<flow id="F71600" begin="0" end="100" vehsPerHour="10" type="Car0" departLane="best" departSpeed="random" from="23" to="57"/>
			<flow id="F71700" begin="0" end="100" vehsPerHour="10" type="Car0" departLane="best" departSpeed="random" from="21" to="72"/>
			<flow id="F71800" begin="0" end="100" vehsPerHour="12" type="Car0" departLane="best" departSpeed="random" from="21" to="58"/>
			<flow id="F80600" begin="0" end="100" vehsPerHour="11" type="Car0" departLane="best" departSpeed="random" from="24" to="14"/>
			<flow id="F80700" begin="0" end="100" vehsPerHour="12" type="Car0" departLane="best" departSpeed="random" from="27" to="7"/>
			<flow id="F81100" begin="0" end="100" vehsPerHour="11" type="Car0" departLane="best" departSpeed="random" from="24" to="19"/>
			<flow id="F81200" begin="0" end="100" vehsPerHour="12" type="Car0" departLane="best" departSpeed="random" from="24" to="23"/>
			<flow id="F81300" begin="0" end="100" vehsPerHour="10" type="Car0" departLane="best" departSpeed="random" from="25" to="27"/>
			<flow id="F81600" begin="0" end="100" vehsPerHour="11" type="Car0" departLane="best" departSpeed="random" from="27" to="69"/>
			<flow id="F81700" begin="0" end="100" vehsPerHour="11" type="Car0" departLane="best" departSpeed="random" from="24" to="41"/>
			<flow id="F81800" begin="0" end="100" vehsPerHour="12" type="Car0" departLane="best" departSpeed="random" from="25" to="58"/>
			<flow id="F110600" begin="0" end="100" vehsPerHour="10" type="Car0" departLane="best" departSpeed="random" from="35" to="4"/>
			<flow id="F110700" begin="0" end="100" vehsPerHour="12" type="Car0" departLane="best" departSpeed="random" from="34" to="7"/>
			<flow id="F110800" begin="0" end="100" vehsPerHour="14" type="Car0" departLane="best" departSpeed="random" from="35" to="29"/>
			<flow id="F111200" begin="0" end="100" vehsPerHour="12" type="Car0" departLane="best" departSpeed="random" from="37" to="36"/>
			<flow id="F111300" begin="0" end="100" vehsPerHour="12" type="Car0" departLane="best" departSpeed="random" from="37" to="27"/>
			<flow id="F111600" begin="0" end="100" vehsPerHour="11" type="Car0" departLane="best" departSpeed="random" from="34" to="37"/>
			<flow id="F111700" begin="0" end="100" vehsPerHour="12" type="Car0" departLane="best" departSpeed="random" from="37" to="41"/>
			<flow id="F111800" begin="0" end="100" vehsPerHour="10" type="Car0" departLane="best" departSpeed="random" from="34" to="58"/>
			<flow id="F120600" begin="0" end="100" vehsPerHour="12" type="Car0" departLane="best" departSpeed="random" from="41" to="21"/>
			<flow id="F120700" begin="0" end="100" vehsPerHour="13" type="Car0" departLane="best" departSpeed="random" from="41" to="18"/>
			<flow id="F120800" begin="0" end="100" vehsPerHour="10" type="Car0" departLane="best" departSpeed="random" from="39" to="22"/>
			<flow id="F121100" begin="0" end="100" vehsPerHour="12" type="Car0" departLane="best" departSpeed="random" from="41" to="52"/>
			<flow id="F121300" begin="0" end="100" vehsPerHour="12" type="Car0" departLane="best" departSpeed="random" from="38" to="40"/>
			<flow id="F121600" begin="0" end="100" vehsPerHour="13" type="Car0" departLane="best" departSpeed="random" from="41" to="57"/>
			<flow id="F121800" begin="0" end="100" vehsPerHour="11" type="Car0" departLane="best" departSpeed="random" from="39" to="75"/>
			<flow id="F130600" begin="0" end="100" vehsPerHour="13" type="Car0" departLane="best" departSpeed="random" from="43" to="4"/>
			<flow id="F130700" begin="0" end="100" vehsPerHour="11" type="Car0" departLane="best" departSpeed="random" from="42" to="18"/>
			<flow id="F130800" begin="0" end="100" vehsPerHour="12" type="Car0" departLane="best" departSpeed="random" from="45" to="22"/>
			<flow id="F131100" begin="0" end="100" vehsPerHour="13" type="Car0" departLane="best" departSpeed="random" from="45" to="32"/>
			<flow id="F131200" begin="0" end="100" vehsPerHour="11" type="Car0" departLane="best" departSpeed="random" from="42" to="56"/>
			<flow id="F131600" begin="0" end="100" vehsPerHour="11" type="Car0" departLane="best" departSpeed="random" from="45" to="50"/>
			<flow id="F131700" begin="0" end="100" vehsPerHour="9" type="Car0" departLane="best" departSpeed="random" from="44" to="61"/>
			<flow id="F131800" begin="0" end="100" vehsPerHour="11" type="Car0" departLane="best" departSpeed="random" from="45" to="75"/>
			<flow id="F160600" begin="0" end="100" vehsPerHour="12" type="Car0" departLane="best" departSpeed="random" from="53" to="4"/>
			<flow id="F160700" begin="0" end="100" vehsPerHour="13" type="Car0" departLane="best" departSpeed="random" from="55" to="7"/>
			<flow id="F160800" begin="0" end="100" vehsPerHour="11" type="Car0" departLane="best" departSpeed="random" from="54" to="22"/>
			<flow id="F161100" begin="0" end="100" vehsPerHour="12" type="Car0" departLane="best" departSpeed="random" from="54" to="52"/>
			<flow id="F161200" begin="0" end="100" vehsPerHour="12" type="Car0" departLane="best" departSpeed="random" from="54" to="36"/>
			<flow id="F161300" begin="0" end="100" vehsPerHour="10" type="Car0" departLane="best" departSpeed="random" from="53" to="60"/>
			<flow id="F161700" begin="0" end="100" vehsPerHour="12" type="Car0" departLane="best" departSpeed="random" from="55" to="54"/>
			<flow id="F161800" begin="0" end="100" vehsPerHour="12" type="Car0" departLane="best" departSpeed="random" from="53" to="45"/>
			<flow id="F170600" begin="0" end="100" vehsPerHour="11" type="Car0" departLane="best" departSpeed="random" from="56" to="14"/>
			<flow id="F170700" begin="0" end="100" vehsPerHour="13" type="Car0" departLane="best" departSpeed="random" from="58" to="38"/>
			<flow id="F170800" begin="0" end="100" vehsPerHour="10" type="Car0" departLane="best" departSpeed="random" from="58" to="10"/>
			<flow id="F171100" begin="0" end="100" vehsPerHour="13" type="Car0" departLane="best" departSpeed="random" from="58" to="32"/>
			<flow id="F171200" begin="0" end="100" vehsPerHour="11" type="Car0" departLane="best" departSpeed="random" from="58" to="56"/>
			<flow id="F171300" begin="0" end="100" vehsPerHour="11" type="Car0" departLane="best" departSpeed="random" from="58" to="60"/>
			<flow id="F171800" begin="0" end="100" vehsPerHour="11" type="Car0" departLane="best" departSpeed="random" from="56" to="58"/>
			<flow id="F180600" begin="0" end="100" vehsPerHour="9" type="Car0" departLane="best" departSpeed="random" from="63" to="34"/>
			<flow id="F180700" begin="0" end="100" vehsPerHour="11" type="Car0" departLane="best" departSpeed="random" from="60" to="25"/>
			<flow id="F180800" begin="0" end="100" vehsPerHour="12" type="Car0" departLane="best" departSpeed="random" from="62" to="29"/>
			<flow id="F181100" begin="0" end="100" vehsPerHour="10" type="Car0" departLane="best" departSpeed="random" from="62" to="19"/>
			<flow id="F181200" begin="0" end="100" vehsPerHour="10" type="Car0" departLane="best" departSpeed="random" from="61" to="43"/>
			<flow id="F181300" begin="0" end="100" vehsPerHour="13" type="Car0" departLane="best" departSpeed="random" from="63" to="47"/>
			<flow id="F181600" begin="0" end="100" vehsPerHour="9" type="Car0" departLane="best" departSpeed="random" from="62" to="69"/>
			<flow id="F181700" begin="0" end="100" vehsPerHour="12" type="Car0" departLane="best" departSpeed="random" from="63" to="54"/>
			<flow id="F62900" begin="0" end="100" vehsPerHour="43" type="Car0" departLane="best" departSpeed="random" from="18" to="80"/>
			<flow id="F63000" begin="0" end="100" vehsPerHour="43" type="Car0" departLane="best" departSpeed="random" from="19" to="84"/>
			<flow id="F63100" begin="0" end="100" vehsPerHour="39" type="Car0" departLane="best" departSpeed="random" from="16" to="87"/>
			<flow id="F63200" begin="0" end="100" vehsPerHour="40" type="Car0" departLane="best" departSpeed="random" from="18" to="89"/>
			<flow id="F72900" begin="0" end="100" vehsPerHour="46" type="Car0" departLane="best" departSpeed="random" from="21" to="80"/>
			<flow id="F73000" begin="0" end="100" vehsPerHour="44" type="Car0" departLane="best" departSpeed="random" from="21" to="84"/>
			<flow id="F73100" begin="0" end="100" vehsPerHour="46" type="Car0" departLane="best" departSpeed="random" from="23" to="87"/>
			<flow id="F73200" begin="0" end="100" vehsPerHour="40" type="Car0" departLane="best" departSpeed="random" from="22" to="89"/>
			<flow id="F82900" begin="0" end="100" vehsPerHour="42" type="Car0" departLane="best" departSpeed="random" from="27" to="80"/>
			<flow id="F83000" begin="0" end="100" vehsPerHour="49" type="Car0" departLane="best" departSpeed="random" from="24" to="84"/>
			<flow id="F83100" begin="0" end="100" vehsPerHour="51" type="Car0" departLane="best" departSpeed="random" from="25" to="87"/>
			<flow id="F83200" begin="0" end="100" vehsPerHour="46" type="Car0" departLane="best" departSpeed="random" from="26" to="89"/>
			<flow id="F112900" begin="0" end="100" vehsPerHour="45" type="Car0" departLane="best" departSpeed="random" from="37" to="80"/>
			<flow id="F113000" begin="0" end="100" vehsPerHour="39" type="Car0" departLane="best" departSpeed="random" from="37" to="84"/>
			<flow id="F113100" begin="0" end="100" vehsPerHour="40" type="Car0" departLane="best" departSpeed="random" from="34" to="87"/>
			<flow id="F113200" begin="0" end="100" vehsPerHour="45" type="Car0" departLane="best" departSpeed="random" from="36" to="89"/>
			<flow id="F122900" begin="0" end="100" vehsPerHour="44" type="Car0" departLane="best" departSpeed="random" from="39" to="80"/>
			<flow id="F123000" begin="0" end="100" vehsPerHour="39" type="Car0" departLane="best" departSpeed="random" from="41" to="84"/>
			<flow id="F123100" begin="0" end="100" vehsPerHour="41" type="Car0" departLane="best" departSpeed="random" from="38" to="87"/>
			<flow id="F123200" begin="0" end="100" vehsPerHour="43" type="Car0" departLane="best" departSpeed="random" from="39" to="89"/>
			<flow id="F132900" begin="0" end="100" vehsPerHour="39" type="Car0" departLane="best" departSpeed="random" from="45" to="80"/>
			<flow id="F133000" begin="0" end="100" vehsPerHour="43" type="Car0" departLane="best" departSpeed="random" from="45" to="84"/>
			<flow id="F133100" begin="0" end="100" vehsPerHour="43" type="Car0" departLane="best" departSpeed="random" from="44" to="87"/>
			<flow id="F133200" begin="0" end="100" vehsPerHour="41" type="Car0" departLane="best" departSpeed="random" from="44" to="89"/>
			<flow id="F162900" begin="0" end="100" vehsPerHour="43" type="Car0" departLane="best" departSpeed="random" from="53" to="80"/>
			<flow id="F163000" begin="0" end="100" vehsPerHour="47" type="Car0" departLane="best" departSpeed="random" from="55" to="84"/>
			<flow id="F163100" begin="0" end="100" vehsPerHour="37" type="Car0" departLane="best" departSpeed="random" from="52" to="87"/>
			<flow id="F163200" begin="0" end="100" vehsPerHour="39" type="Car0" departLane="best" departSpeed="random" from="55" to="89"/>
			<flow id="F172900" begin="0" end="100" vehsPerHour="50" type="Car0" departLane="best" departSpeed="random" from="58" to="80"/>
			<flow id="F173000" begin="0" end="100" vehsPerHour="40" type="Car0" departLane="best" departSpeed="random" from="56" to="84"/>
			<flow id="F173100" begin="0" end="100" vehsPerHour="43" type="Car0" departLane="best" departSpeed="random" from="57" to="87"/>
			<flow id="F173200" begin="0" end="100" vehsPerHour="54" type="Car0" departLane="best" departSpeed="random" from="57" to="89"/>
			<flow id="F182900" begin="0" end="100" vehsPerHour="36" type="Car0" departLane="best" departSpeed="random" from="63" to="80"/>
			<flow id="F183000" begin="0" end="100" vehsPerHour="40" type="Car0" departLane="best" departSpeed="random" from="63" to="84"/>
			<flow id="F183100" begin="0" end="100" vehsPerHour="32" type="Car0" departLane="best" departSpeed="random" from="61" to="87"/>
			<flow id="F183200" begin="0" end="100" vehsPerHour="40" type="Car0" departLane="best" departSpeed="random" from="60" to="89"/>
			<flow id="F290601" begin="100" end="200" vehsPerHour="165" type="Car0" departLane="best" departSpeed="random" from="92" to="21"/>
			<flow id="F290701" begin="100" end="200" vehsPerHour="155" type="Car0" departLane="best" departSpeed="random" from="92" to="25"/>
			<flow id="F290801" begin="100" end="200" vehsPerHour="133" type="Car0" departLane="best" departSpeed="random" from="92" to="10"/>
			<flow id="F291101" begin="100" end="200" vehsPerHour="144" type="Car0" departLane="best" departSpeed="random" from="92" to="32"/>
			<flow id="F291201" begin="100" end="200" vehsPerHour="149" type="Car0" departLane="best" departSpeed="random" from="92" to="56"/>
			<flow id="F291301" begin="100" end="200" vehsPerHour="115" type="Car0" departLane="best" departSpeed="random" from="92" to="60"/>
			<flow id="F291601" begin="100" end="200" vehsPerHour="131" type="Car0" departLane="best" departSpeed="random" from="92" to="50"/>
			<flow id="F291701" begin="100" end="200" vehsPerHour="139" type="Car0" departLane="best" departSpeed="random" from="92" to="41"/>
			<flow id="F291801" begin="100" end="200" vehsPerHour="165" type="Car0" departLane="best" departSpeed="random" from="92" to="75"/>
			<flow id="F300601" begin="100" end="200" vehsPerHour="151" type="Car0" departLane="best" departSpeed="random" from="93" to="14"/>
			<flow id="F300701" begin="100" end="200" vehsPerHour="158" type="Car0" departLane="best" departSpeed="random" from="93" to="7"/>
			<flow id="F300801" begin="100" end="200" vehsPerHour="163" type="Car0" departLane="best" departSpeed="random" from="93" to="42"/>
			<flow id="F301101" begin="100" end="200" vehsPerHour="153" type="Car0" departLane="best" departSpeed="random" from="93" to="19"/>
			<flow id="F301201" begin="100" end="200" vehsPerHour="124" type="Car0" departLane="best" departSpeed="random" from="93" to="36"/>
			<flow id="F301301" begin="100" end="200" vehsPerHour="136" type="Car0" departLane="best" departSpeed="random" from="93" to="60"/>
			<flow id="F301601" begin="100" end="200" vehsPerHour="156" type="Car0" departLane="best" departSpeed="random" from="93" to="50"/>
			<flow id="F301701" begin="100" end="200" vehsPerHour="145" type="Car0" departLane="best" departSpeed="random" from="93" to="72"/>
			<flow id="F301801" begin="100" end="200" vehsPerHour="123" type="Car0" departLane="best" departSpeed="random" from="93" to="58"/>
			<flow id="F310601" begin="100" end="200" vehsPerHour="141" type="Car0" departLane="best" departSpeed="random" from="94" to="14"/>
			<flow id="F310701" begin="100" end="200" vehsPerHour="131" type="Car0" departLane="best" departSpeed="random" from="94" to="25"/>
			<flow id="F310801" begin="100" end="200" vehsPerHour="155" type="Car0" departLane="best" departSpeed="random" from="94" to="29"/>
			<flow id="F311101" begin="100" end="200" vehsPerHour="116" type="Car0" departLane="best" departSpeed="random" from="94" to="52"/>
			<flow id="F311201" begin="100" end="200" vehsPerHour="121" type="Car0" departLane="best" departSpeed="random" from="94" to="43"/>
			<flow id="F311301" begin="100" end="200" vehsPerHour="112" type="Car0" departLane="best" departSpeed="random" from="94" to="40"/>
			<flow id="F311601" begin="100" end="200" vehsPerHour="122" type="Car0" departLane="best" departSpeed="random" from="94" to="50"/>
			<flow id="F311701" begin="100" end="200" vehsPerHour="151" type="Car0" departLane="best" departSpeed="random" from="94" to="61"/>
			<flow id="F311801" begin="100" end="200" vehsPerHour="135" type="Car0" departLane="best" departSpeed="random" from="94" to="45"/>
			<flow id="F320601" begin="100" end="200" vehsPerHour="131" type="Car0" departLane="best" departSpeed="random" from="95" to="34"/>
			<flow id="F320701" begin="100" end="200" vehsPerHour="135" type="Car0" departLane="best" departSpeed="random" from="95" to="25"/>
			<flow id="F320801" begin="100" end="200" vehsPerHour="158" type="Car0" departLane="best" departSpeed="random" from="95" to="29"/>
			<flow id="F321101" begin="100" end="200" vehsPerHour="143" type="Car0" departLane="best" departSpeed="random" from="95" to="19"/>
			<flow id="F321201" begin="100" end="200" vehsPerHour="157" type="Car0" departLane="best" departSpeed="random" from="95" to="43"/>
			<flow id="F321301" begin="100" end="200" vehsPerHour="136" type="Car0" departLane="best" departSpeed="random" from="95" to="47"/>
			<flow id="F321601" begin="100" end="200" vehsPerHour="141" type="Car0" departLane="best" departSpeed="random" from="95" to="37"/>
			<flow id="F321701" begin="100" end="200" vehsPerHour="126" type="Car0" departLane="best" departSpeed="random" from="95" to="61"/>
			<flow id="F321801" begin="100" end="200" vehsPerHour="132" type="Car0" departLane="best" departSpeed="random" from="95" to="45"/>
			<flow id="F60701" begin="100" end="200" vehsPerHour="14" type="Car0" departLane="best" departSpeed="random" from="17" to="18"/>
			<flow id="F60801" begin="100" end="200" vehsPerHour="9" type="Car0" departLane="best" departSpeed="random" from="19" to="22"/>
			<flow id="F61101" begin="100" end="200" vehsPerHour="11" type="Car0" departLane="best" departSpeed="random" from="19" to="52"/>
			<flow id="F61201" begin="100" end="200" vehsPerHour="10" type="Car0" departLane="best" departSpeed="random" from="17" to="23"/>
			<flow id="F61301" begin="100" end="200" vehsPerHour="11" type="Car0" departLane="best" departSpeed="random" from="17" to="60"/>
			<flow id="F61601" begin="100" end="200" vehsPerHour="13" type="Car0" departLane="best" departSpeed="random" from="16" to="57"/>
			<flow id="F61701" begin="100" end="200" vehsPerHour="10" type="Car0" departLane="best" departSpeed="random" from="19" to="41"/>
			<flow id="F61801" begin="100" end="200" vehsPerHour="11" type="Car0" departLane="best" departSpeed="random" from="16" to="45"/>
			<flow id="F70601" begin="100" end="200" vehsPerHour="11" type="Car0" departLane="best" departSpeed="random" from="22" to="14"/>
			<flow id="F71101" begin="100" end="200" vehsPerHour="13" type="Car0" departLane="best" departSpeed="random" from="21" to="52"/>
			<flow id="F71201" begin="100" end="200" vehsPerHour="11" type="Car0" departLane="best" departSpeed="random" from="20" to="56"/>
			<flow id="F71301" begin="100" end="200" vehsPerHour="11" type="Car0" departLane="best" departSpeed="random" from="21" to="27"/>
			<flow id="F71601" begin="100" end="200" vehsPerHour="12" type="Car0" departLane="best" departSpeed="random" from="23" to="57"/>
			<flow id="F71701" begin="100" end="200" vehsPerHour="12" type="Car0" departLane="best" departSpeed="random" from="21" to="72"/>
			<flow id="F71801" begin="100" end="200" vehsPerHour="9" type="Car0" departLane="best" departSpeed="random" from="21" to="58"/>
			<flow id="F80601" begin="100" end="200" vehsPerHour="11" type="Car0" departLane="best" departSpeed="random" from="24" to="14"/>
			<flow id="F80701" begin="100" end="200" vehsPerHour="10" type="Car0" departLane="best" departSpeed="random" from="27" to="7"/>
			<flow id="F81101" begin="100" end="200" vehsPerHour="13" type="Car0" departLane="best" departSpeed="random" from="24" to="19"/>
			<flow id="F81201" begin="100" end="200" vehsPerHour="13" type="Car0" departLane="best" departSpeed="random" from="24" to="23"/>
			<flow id="F81301" begin="100" end="200" vehsPerHour="12" type="Car0" departLane="best" departSpeed="random" from="25" to="27"/>
			<flow id="F81601" begin="100" end="200" vehsPerHour="13" type="Car0" departLane="best" departSpeed="random" from="27" to="69"/>
			<flow id="F81701" begin="100" end="200" vehsPerHour="11" type="Car0" departLane="best" departSpeed="random" from="24" to="41"/>
			<flow id="F81801" begin="100" end="200" vehsPerHour="11" type="Car0" departLane="best" departSpeed="random" from="25" to="58"/>
			<flow id="F110601" begin="100" end="200" vehsPerHour="12" type="Car0" departLane="best" departSpeed="random" from="35" to="4"/>
			<flow id="F110701" begin="100" end="200" vehsPerHour="11" type="Car0" departLane="best" departSpeed="random" from="34" to="7"/>
			<flow id="F110801" begin="100" end="200" vehsPerHour="12" type="Car0" departLane="best" departSpeed="random" from="35" to="29"/>
			<flow id="F111201" begin="100" end="200" vehsPerHour="14" type="Car0" departLane="best" departSpeed="random" from="37" to="36"/>
			<flow id="F111301" begin="100" end="200" vehsPerHour="12" type="Car0" departLane="best" departSpeed="random" from="37" to="27"/>
			<flow id="F111601" begin="100" end="200" vehsPerHour="11" type="Car0" departLane="best" departSpeed="random" from="34" to="37"/>
			<flow id="F111701" begin="100" end="200" vehsPerHour="11" type="Car0" departLane="best" departSpeed="random" from="37" to="41"/>
			<flow id="F111801" begin="100" end="200" vehsPerHour="13" type="Car0" departLane="best" departSpeed="random" from="34" to="58"/>
			<flow id="F120601" begin="100" end="200" vehsPerHour="11" type="Car0" departLane="best" departSpeed="random" from="41" to="21"/>
			<flow id="F120701" begin="100" end="200" vehsPerHour="12" type="Car0" departLane="best" departSpeed="random" from="41" to="18"/>
			<flow id="F120801" begin="100" end="200" vehsPerHour="11" type="Car0" departLane="best" departSpeed="random" from="39" to="22"/>
			<flow id="F121101" begin="100" end="200" vehsPerHour="11" type="Car0" departLane="best" departSpeed="random" from="41" to="52"/>
			<flow id="F121301" begin="100" end="200" vehsPerHour="12" type="Car0" departLane="best" departSpeed="random" from="38" to="40"/>
			<flow id="F121601" begin="100" end="200" vehsPerHour="11" type="Car0" departLane="best" departSpeed="random" from="41" to="57"/>
			<flow id="F121801" begin="100" end="200" vehsPerHour="13" type="Car0" departLane="best" departSpeed="random" from="39" to="75"/>
			<flow id="F130601" begin="100" end="200" vehsPerHour="12" type="Car0" departLane="best" departSpeed="random" from="43" to="4"/>
			<flow id="F130701" begin="100" end="200" vehsPerHour="12" type="Car0" departLane="best" departSpeed="random" from="42" to="18"/>
			<flow id="F130801" begin="100" end="200" vehsPerHour="12" type="Car0" departLane="best" departSpeed="random" from="45" to="22"/>
			<flow id="F131101" begin="100" end="200" vehsPerHour="11" type="Car0" departLane="best" departSpeed="random" from="45" to="32"/>
			<flow id="F131201" begin="100" end="200" vehsPerHour="12" type="Car0" departLane="best" departSpeed="random" from="42" to="56"/>
			<flow id="F131601" begin="100" end="200" vehsPerHour="10" type="Car0" departLane="best" departSpeed="random" from="45" to="50"/>
			<flow id="F131701" begin="100" end="200" vehsPerHour="10" type="Car0" departLane="best" departSpeed="random" from="44" to="61"/>
			<flow id="F131801" begin="100" end="200" vehsPerHour="12" type="Car0" departLane="best" departSpeed="random" from="45" to="75"/>
			<flow id="F160601" begin="100" end="200" vehsPerHour="10" type="Car0" departLane="best" departSpeed="random" from="53" to="4"/>
			<flow id="F160701" begin="100" end="200" vehsPerHour="10" type="Car0" departLane="best" departSpeed="random" from="55" to="7"/>
			<flow id="F160801" begin="100" end="200" vehsPerHour="11" type="Car0" departLane="best" departSpeed="random" from="54" to="22"/>
			<flow id="F161101" begin="100" end="200" vehsPerHour="12" type="Car0" departLane="best" departSpeed="random" from="54" to="52"/>
			<flow id="F161201" begin="100" end="200" vehsPerHour="12" type="Car0" departLane="best" departSpeed="random" from="54" to="36"/>