<?xml version="1.0" encoding="UTF-8"?>

<!-- generated on 05/12/21 19:17:20 by Eclipse SUMO netedit Version 1.8.0
<configuration xmlns:xsi="http://www.w3.org/2001/XMLSchema-instance" xsi:noNamespaceSchemaLocation="http://sumo.dlr.de/xsd/netconvertConfiguration.xsd">

    <input>
        <sumo-net-file value="E:\StevenSU\OneDrive%20-%20City%20University%20of%20Hong%20Kong\Research%20in%20CityU\Code\SUMO_MFD\Bilevel_3.0\network\GridBuffer.net.xml"/>
    </input>

    <output>
        <output-file value="E:\StevenSU\OneDrive%20-%20City%20University%20of%20Hong%20Kong\Research%20in%20CityU\Code\SUMO_MFD\Bilevel_3.0\network\GridBuffer.net.xml"/>
        <plain-output-prefix value="E:\StevenSU\OneDrive%20-%20City%20University%20of%20Hong%20Kong\Research%20in%20CityU\Code\SUMO_MFD\Bilevel_3.0\network\GridBuffer\GridBuffer"/>
    </output>

    <processing>
        <geometry.min-radius.fix.railways value="false"/>
        <geometry.max-grade.fix value="false"/>
        <offset.disable-normalization value="true"/>
        <lefthand value="false"/>
    </processing>

    <junctions>
        <no-turnarounds value="true"/>
        <junctions.corner-detail value="5"/>
        <junctions.limit-turn-speed value="5.5"/>
        <rectangular-lane-cut value="false"/>
    </junctions>

    <pedestrian>
        <walkingareas value="false"/>
    </pedestrian>

    <netedit>
        <edgeTypes-output value="E:\StevenSU\OneDrive - City University of Hong Kong\Research in CityU\Code\SUMO_MFD\Bilevel_3.0\network\Edge.xml"/>
    </netedit>

    <report>
        <aggregate-warnings value="5"/>
    </report>

</configuration>
-->

<connections version="1.6" xmlns:xsi="http://www.w3.org/2001/XMLSchema-instance" xsi:noNamespaceSchemaLocation="http://sumo.dlr.de/xsd/connections_file.xsd">
    <connection from="0" to="4" fromLane="0" toLane="0"/>
    <connection from="0" to="3" fromLane="0" toLane="0"/>
    <connection from="0" to="3" fromLane="1" toLane="1"/>
    <connection from="0" to="3" fromLane="2" toLane="2"/>
    <connection from="0" to="2" fromLane="2" toLane="2"/>

    <connection from="1" to="15" fromLane="0" toLane="0"/>
    <connection from="1" to="15" fromLane="1" toLane="1"/>
    <connection from="1" to="15" fromLane="2" toLane="2"/>
    <connection from="1" to="14" fromLane="2" toLane="1"/>
    <connection from="1" to="14" fromLane="2" toLane="2"/>
    <connection from="1" to="13" fromLane="2" toLane="2"/>

    <connection from="10" to="25" fromLane="0" toLane="0"/>
    <connection from="10" to="27" fromLane="0" toLane="0"/>
    <connection from="10" to="27" fromLane="1" toLane="1"/>
    <connection from="10" to="27" fromLane="2" toLane="2"/>
    <connection from="10" to="26" fromLane="2" toLane="2"/>
    <connection from="10" to="24" fromLane="2" toLane="2"/>

    <connection from="11" to="8" fromLane="0" toLane="0"/>
    <connection from="11" to="8" fromLane="1" toLane="1"/>
    <connection from="11" to="8" fromLane="2" toLane="2"/>
    <connection from="11" to="10" fromLane="2" toLane="1"/>
    <connection from="11" to="10" fromLane="2" toLane="2"/>
    <connection from="11" to="9" fromLane="2" toLane="2"/>

    <connection from="12" to="29" fromLane="0" toLane="0"/>
    <connection from="12" to="30" fromLane="0" toLane="0"/>
    <connection from="12" to="30" fromLane="1" toLane="1"/>
    <connection from="12" to="30" fromLane="2" toLane="2"/>
    <connection from="12" to="28" fromLane="2" toLane="2"/>

    <connection from="13" to="0" fromLane="0" toLane="0"/>
    <connection from="13" to="0" fromLane="1" toLane="1"/>
    <connection from="13" to="0" fromLane="2" toLane="2"/>

    <connection from="14" to="19" fromLane="0" toLane="0"/>
    <connection from="14" to="18" fromLane="0" toLane="0"/>
    <connection from="14" to="18" fromLane="1" toLane="1"/>
    <connection from="14" to="18" fromLane="2" toLane="2"/>
    <connection from="14" to="16" fromLane="2" toLane="2"/>
    <connection from="14" to="17" fromLane="2" toLane="2"/>

    <connection from="15" to="33" fromLane="0" toLane="0"/>
    <connection from="15" to="33" fromLane="1" toLane="1"/>
    <connection from="15" to="33" fromLane="2" toLane="2"/>
    <connection from="15" to="32" fromLane="2" toLane="2"/>
    <connection from="15" to="31" fromLane="2" toLane="2"/>

    <connection from="16" to="3" fromLane="0" toLane="0"/>
    <connection from="16" to="3" fromLane="1" toLane="1"/>
    <connection from="16" to="2" fromLane="2" toLane="1"/>
    <connection from="16" to="2" fromLane="2" toLane="2"/>
    <connection from="16" to="4" fromLane="2" toLane="2"/>

    <connection from="17" to="13" fromLane="0" toLane="0"/>
    <connection from="17" to="13" fromLane="1" toLane="1"/>
    <connection from="17" to="15" fromLane="2" toLane="1"/>
    <connection from="17" to="15" fromLane="2" toLane="2"/>
    <connection from="17" to="14" fromLane="2" toLane="2"/>

    <connection from="18" to="23" fromLane="0" toLane="0"/>
    <connection from="18" to="22" fromLane="0" toLane="0"/>
    <connection from="18" to="22" fromLane="1" toLane="1"/>
    <connection from="18" to="22" fromLane="2" toLane="2"/>
    <connection from="18" to="20" fromLane="2" toLane="2"/>
    <connection from="18" to="21" fromLane="2" toLane="2"/>

    <connection from="19" to="35" fromLane="0" toLane="0"/>
    <connection from="19" to="37" fromLane="0" toLane="0"/>
    <connection from="19" to="37" fromLane="1" toLane="1"/>
    <connection from="19" to="37" fromLane="2" toLane="2"/>
    <connection from="19" to="36" fromLane="2" toLane="2"/>
    <connection from="19" to="34" fromLane="2" toLane="2"/>

    <connection from="2" to="1" fromLane="0" toLane="0"/>
    <connection from="2" to="1" fromLane="1" toLane="1"/>
    <connection from="2" to="1" fromLane="2" toLane="2"/>

    <connection from="20" to="6" fromLane="0" toLane="0"/>
    <connection from="20" to="82" fromLane="0" toLane="0"/>
    <connection from="20" to="82" fromLane="1" toLane="1"/>
    <connection from="20" to="82" fromLane="2" toLane="2"/>
    <connection from="20" to="5" fromLane="2" toLane="2"/>
    <connection from="20" to="7" fromLane="2" toLane="2"/>

    <connection from="21" to="16" fromLane="0" toLane="0"/>
    <connection from="21" to="17" fromLane="0" toLane="0"/>
    <connection from="21" to="17" fromLane="1" toLane="1"/>
    <connection from="21" to="17" fromLane="2" toLane="2"/>
    <connection from="21" to="19" fromLane="2" toLane="2"/>
    <connection from="21" to="18" fromLane="2" toLane="2"/>

    <connection from="22" to="27" fromLane="0" toLane="0"/>
    <connection from="22" to="26" fromLane="0" toLane="0"/>
    <connection from="22" to="26" fromLane="1" toLane="1"/>
    <connection from="22" to="26" fromLane="2" toLane="2"/>
    <connection from="22" to="24" fromLane="2" toLane="2"/>
    <connection from="22" to="25" fromLane="2" toLane="2"/>

    <connection from="23" to="39" fromLane="0" toLane="0"/>
    <connection from="23" to="41" fromLane="0" toLane="0"/>
    <connection from="23" to="41" fromLane="1" toLane="1"/>
    <connection from="23" to="41" fromLane="2" toLane="2"/>
    <connection from="23" to="40" fromLane="2" toLane="2"/>
    <connection from="23" to="38" fromLane="2" toLane="2"/>

    <connection from="24" to="9" fromLane="0" toLane="0"/>
    <connection from="24" to="9" fromLane="1" toLane="1"/>
    <connection from="24" to="8" fromLane="2" toLane="1"/>
    <connection from="24" to="8" fromLane="2" toLane="2"/>
    <connection from="24" to="10" fromLane="2" toLane="2"/>

    <connection from="25" to="20" fromLane="0" toLane="0"/>
    <connection from="25" to="21" fromLane="0" toLane="0"/>
    <connection from="25" to="21" fromLane="1" toLane="1"/>
    <connection from="25" to="21" fromLane="2" toLane="2"/>
    <connection from="25" to="23" fromLane="2" toLane="2"/>
    <connection from="25" to="22" fromLane="2" toLane="2"/>

    <connection from="26" to="30" fromLane="0" toLane="0"/>
    <connection from="26" to="30" fromLane="1" toLane="1"/>
    <connection from="26" to="28" fromLane="2" toLane="1"/>
    <connection from="26" to="28" fromLane="2" toLane="2"/>
    <connection from="26" to="29" fromLane="2" toLane="2"/>

    <connection from="27" to="43" fromLane="0" toLane="0"/>
    <connection from="27" to="45" fromLane="0" toLane="0"/>
    <connection from="27" to="45" fromLane="1" toLane="1"/>
    <connection from="27" to="45" fromLane="2" toLane="2"/>
    <connection from="27" to="44" fromLane="2" toLane="2"/>
    <connection from="27" to="42" fromLane="2" toLane="2"/>

    <connection from="28" to="11" fromLane="0" toLane="0"/>
    <connection from="28" to="11" fromLane="1" toLane="1"/>
    <connection from="28" to="11" fromLane="2" toLane="2"/>

    <connection from="29" to="24" fromLane="0" toLane="0"/>
    <connection from="29" to="25" fromLane="0" toLane="0"/>
    <connection from="29" to="25" fromLane="1" toLane="1"/>
    <connection from="29" to="25" fromLane="2" toLane="2"/>
    <connection from="29" to="27" fromLane="2" toLane="2"/>
    <connection from="29" to="26" fromLane="2" toLane="2"/>

    <connection from="3" to="7" fromLane="0" toLane="0"/>
    <connection from="3" to="6" fromLane="0" toLane="0"/>
    <connection from="3" to="6" fromLane="1" toLane="1"/>
    <connection from="3" to="6" fromLane="2" toLane="2"/>

    <connection from="30" to="47" fromLane="0" toLane="0"/>
    <connection from="30" to="48" fromLane="0" toLane="0"/>
    <connection from="30" to="48" fromLane="1" toLane="1"/>
    <connection from="30" to="48" fromLane="2" toLane="2"/>
    <connection from="30" to="46" fromLane="2" toLane="2"/>

    <connection from="31" to="14" fromLane="0" toLane="0"/>
    <connection from="31" to="13" fromLane="0" toLane="0"/>
    <connection from="31" to="13" fromLane="1" toLane="1"/>
    <connection from="31" to="13" fromLane="2" toLane="2"/>
    <connection from="31" to="15" fromLane="2" toLane="2"/>

    <connection from="32" to="37" fromLane="0" toLane="0"/>
    <connection from="32" to="36" fromLane="0" toLane="0"/>
    <connection from="32" to="36" fromLane="1" toLane="1"/>
    <connection from="32" to="36" fromLane="2" toLane="2"/>
    <connection from="32" to="34" fromLane="2" toLane="2"/>
    <connection from="32" to="35" fromLane="2" toLane="2"/>

    <connection from="33" to="51" fromLane="0" toLane="0"/>
    <connection from="33" to="51" fromLane="1" toLane="1"/>
    <connection from="33" to="51" fromLane="2" toLane="2"/>
    <connection from="33" to="50" fromLane="2" toLane="1"/>
    <connection from="33" to="50" fromLane="2" toLane="2"/>
    <connection from="33" to="49" fromLane="2" toLane="2"/>

    <connection from="34" to="18" fromLane="0" toLane="0"/>
    <connection from="34" to="16" fromLane="0" toLane="0"/>
    <connection from="34" to="16" fromLane="1" toLane="1"/>
    <connection from="34" to="16" fromLane="2" toLane="2"/>
    <connection from="34" to="17" fromLane="2" toLane="2"/>
    <connection from="34" to="19" fromLane="2" toLane="2"/>

    <connection from="35" to="91" fromLane="0" toLane="0"/>
    <connection from="35" to="91" fromLane="1" toLane="1"/>
    <connection from="35" to="91" fromLane="2" toLane="2"/>
    <connection from="35" to="33" fromLane="2" toLane="2"/>
    <connection from="35" to="32" fromLane="2" toLane="2"/>

    <connection from="36" to="41" fromLane="0" toLane="0"/>
    <connection from="36" to="40" fromLane="0" toLane="0"/>
    <connection from="36" to="40" fromLane="1" toLane="1"/>
    <connection from="36" to="40" fromLane="2" toLane="2"/>
    <connection from="36" to="38" fromLane="2" toLane="2"/>
    <connection from="36" to="39" fromLane="2" toLane="2"/>

    <connection from="37" to="53" fromLane="0" toLane="0"/>
    <connection from="37" to="55" fromLane="0" toLane="0"/>
    <connection from="37" to="55" fromLane="1" toLane="1"/>
    <connection from="37" to="55" fromLane="2" toLane="2"/>
    <connection from="37" to="54" fromLane="2" toLane="2"/>
    <connection from="37" to="52" fromLane="2" toLane="2"/>

    <connection from="38" to="22" fromLane="0" toLane="0"/>
    <connection from="38" to="20" fromLane="0" toLane="0"/>
    <connection from="38" to="20" fromLane="1" toLane="1"/>
    <connection from="38" to="20" fromLane="2" toLane="2"/>
    <connection from="38" to="21" fromLane="2" toLane="2"/>
    <connection from="38" to="23" fromLane="2" toLane="2"/>

    <connection from="39" to="34" fromLane="0" toLane="0"/>
    <connection from="39" to="35" fromLane="0" toLane="0"/>
    <connection from="39" to="35" fromLane="1" toLane="1"/>
    <connection from="39" to="35" fromLane="2" toLane="2"/>
    <connection from="39" to="37" fromLane="2" toLane="2"/>
    <connection from="39" to="36" fromLane="2" toLane="2"/>

    <connection from="4" to="17" fromLane="0" toLane="0"/>
    <connection from="4" to="19" fromLane="0" toLane="0"/>
    <connection from="4" to="19" fromLane="1" toLane="1"/>
    <connection from="4" to="19" fromLane="2" toLane="2"/>
    <connection from="4" to="18" fromLane="2" toLane="2"/>
    <connection from="4" to="16" fromLane="2" toLane="2"/>

    <connection from="40" to="45" fromLane="0" toLane="0"/>
    <connection from="40" to="44" fromLane="0" toLane="0"/>
    <connection from="40" to="44" fromLane="1" toLane="1"/>
    <connection from="40" to="44" fromLane="2" toLane="2"/>
    <connection from="40" to="42" fromLane="2" toLane="2"/>
    <connection from="40" to="43" fromLane="2" toLane="2"/>

    <connection from="41" to="57" fromLane="0" toLane="0"/>
    <connection from="41" to="59" fromLane="0" toLane="0"/>
    <connection from="41" to="59" fromLane="1" toLane="1"/>
    <connection from="41" to="59" fromLane="2" toLane="2"/>
    <connection from="41" to="58" fromLane="2" toLane="2"/>
    <connection from="41" to="56" fromLane="2" toLane="2"/>

    <connection from="42" to="26" fromLane="0" toLane="0"/>
    <connection from="42" to="24" fromLane="0" toLane="0"/>
    <connection from="42" to="24" fromLane="1" toLane="1"/>
    <connection from="42" to="24" fromLane="2" toLane="2"/>
    <connection from="42" to="25" fromLane="2" toLane="2"/>
    <connection from="42" to="27" fromLane="2" toLane="2"/>

    <connection from="43" to="38" fromLane="0" toLane="0"/>
    <connection from="43" to="39" fromLane="0" toLane="0"/>
    <connection from="43" to="39" fromLane="1" toLane="1"/>
    <connection from="43" to="39" fromLane="2" toLane="2"/>
    <connection from="43" to="41" fromLane="2" toLane="2"/>
    <connection from="43" to="40" fromLane="2" toLane="2"/>

    <connection from="44" to="48" fromLane="0" toLane="0"/>
    <connection from="44" to="85" fromLane="0" toLane="0"/>
    <connection from="44" to="85" fromLane="1" toLane="1"/>
    <connection from="44" to="85" fromLane="2" toLane="2"/>
    <connection from="44" to="46" fromLane="2" toLane="2"/>
    <connection from="44" to="47" fromLane="2" toLane="2"/>

    <connection from="45" to="61" fromLane="0" toLane="0"/>
    <connection from="45" to="63" fromLane="0" toLane="0"/>
    <connection from="45" to="63" fromLane="1" toLane="1"/>
    <connection from="45" to="63" fromLane="2" toLane="2"/>
    <connection from="45" to="62" fromLane="2" toLane="2"/>
    <connection from="45" to="60" fromLane="2" toLane="2"/>

    <connection from="46" to="28" fromLane="0" toLane="0"/>
    <connection from="46" to="28" fromLane="1" toLane="1"/>
    <connection from="46" to="28" fromLane="2" toLane="2"/>
    <connection from="46" to="29" fromLane="2" toLane="1"/>
    <connection from="46" to="29" fromLane="2" toLane="2"/>
    <connection from="46" to="30" fromLane="2" toLane="2"/>

    <connection from="47" to="42" fromLane="0" toLane="0"/>
    <connection from="47" to="43" fromLane="0" toLane="0"/>
    <connection from="47" to="43" fromLane="1" toLane="1"/>
    <connection from="47" to="43" fromLane="2" toLane="2"/>
    <connection from="47" to="45" fromLane="2" toLane="2"/>
    <connection from="47" to="44" fromLane="2" toLane="2"/>

    <connection from="48" to="65" fromLane="0" toLane="0"/>
    <connection from="48" to="66" fromLane="0" toLane="0"/>
    <connection from="48" to="66" fromLane="1" toLane="1"/>
    <connection from="48" to="66" fromLane="2" toLane="2"/>
    <connection from="48" to="64" fromLane="2" toLane="2"/>

    <connection from="49" to="32" fromLane="0" toLane="0"/>
    <connection from="49" to="31" fromLane="0" toLane="0"/>
    <connection from="49" to="31" fromLane="1" toLane="1"/>
    <connection from="49" to="31" fromLane="2" toLane="2"/>
    <connection from="49" to="33" fromLane="2" toLane="2"/>

    <connection from="5" to="2" fromLane="0" toLane="0"/>
    <connection from="5" to="2" fromLane="1" toLane="1"/>
    <connection from="5" to="2" fromLane="2" toLane="2"/>
    <connection from="5" to="4" fromLane="2" toLane="1"/>
    <connection from="5" to="4" fromLane="2" toLane="2"/>
    <connection from="5" to="3" fromLane="2" toLane="2"/>

    <connection from="50" to="55" fromLane="0" toLane="0"/>
    <connection from="50" to="54" fromLane="0" toLane="0"/>
    <connection from="50" to="54" fromLane="1" toLane="1"/>
    <connection from="50" to="54" fromLane="2" toLane="2"/>
    <connection from="50" to="52" fromLane="2" toLane="2"/>
    <connection from="50" to="53" fromLane="2" toLane="2"/>

    <connection from="51" to="68" fromLane="0" toLane="0"/>
    <connection from="51" to="68" fromLane="1" toLane="1"/>
    <connection from="51" to="68" fromLane="2" toLane="2"/>

    <connection from="52" to="36" fromLane="0" toLane="0"/>
    <connection from="52" to="34" fromLane="0" toLane="0"/>
    <connection from="52" to="34" fromLane="1" toLane="1"/>
    <connection from="52" to="34" fromLane="2" toLane="2"/>
    <connection from="52" to="35" fromLane="2" toLane="2"/>
    <connection from="52" to="37" fromLane="2" toLane="2"/>

    <connection from="53" to="49" fromLane="0" toLane="0"/>
    <connection from="53" to="49" fromLane="1" toLane="1"/>
    <connection from="53" to="51" fromLane="2" toLane="1"/>
    <connection from="53" to="51" fromLane="2" toLane="2"/>
    <connection from="53" to="50" fromLane="2" toLane="2"/>

    <connection from="54" to="59" fromLane="0" toLane="0"/>
    <connection from="54" to="58" fromLane="0" toLane="0"/>
    <connection from="54" to="58" fromLane="1" toLane="1"/>
    <connection from="54" to="58" fromLane="2" toLane="2"/>
    <connection from="54" to="56" fromLane="2" toLane="2"/>
    <connection from="54" to="57" fromLane="2" toLane="2"/>

    <connection from="55" to="70" fromLane="0" toLane="0"/>
    <connection from="55" to="70" fromLane="1" toLane="1"/>
    <connection from="55" to="71" fromLane="2" toLane="1"/>
    <connection from="55" to="71" fromLane="2" toLane="2"/>
    <connection from="55" to="69" fromLane="2" toLane="2"/>

    <connection from="56" to="40" fromLane="0" toLane="0"/>
    <connection from="56" to="38" fromLane="0" toLane="0"/>
    <connection from="56" to="38" fromLane="1" toLane="1"/>
    <connection from="56" to="38" fromLane="2" toLane="2"/>
    <connection from="56" to="39" fromLane="2" toLane="2"/>
    <connection from="56" to="41" fromLane="2" toLane="2"/>

    <connection from="57" to="52" fromLane="0" toLane="0"/>
    <connection from="57" to="53" fromLane="0" toLane="0"/>
    <connection from="57" to="53" fromLane="1" toLane="1"/>
    <connection from="57" to="53" fromLane="2" toLane="2"/>
    <connection from="57" to="55" fromLane="2" toLane="2"/>
    <connection from="57" to="54" fromLane="2" toLane="2"/>

    <connection from="58" to="63" fromLane="0" toLane="0"/>
    <connection from="58" to="62" fromLane="0" toLane="0"/>
    <connection from="58" to="62" fromLane="1" toLane="1"/>
    <connection from="58" to="62" fromLane="2" toLane="2"/>
    <connection from="58" to="60" fromLane="2" toLane="2"/>
    <connection from="58" to="61" fromLane="2" toLane="2"/>

    <connection from="59" to="73" fromLane="0" toLane="0"/>
    <connection from="59" to="88" fromLane="0" toLane="0"/>
    <connection from="59" to="88" fromLane="1" toLane="1"/>
    <connection from="59" to="88" fromLane="2" toLane="2"/>
    <connection from="59" to="74" fromLane="2" toLane="2"/>
    <connection from="59" to="72" fromLane="2" toLane="2"/>

    <connection from="6" to="10" fromLane="0" toLane="0"/>
    <connection from="6" to="9" fromLane="0" toLane="0"/>
    <connection from="6" to="9" fromLane="1" toLane="1"/>
    <connection from="6" to="9" fromLane="2" toLane="2"/>
    <connection from="6" to="8" fromLane="2" toLane="2"/>

    <connection from="60" to="44" fromLane="0" toLane="0"/>
    <connection from="60" to="42" fromLane="0" toLane="0"/>
    <connection from="60" to="42" fromLane="1" toLane="1"/>
    <connection from="60" to="42" fromLane="2" toLane="2"/>
    <connection from="60" to="43" fromLane="2" toLane="2"/>
    <connection from="60" to="45" fromLane="2" toLane="2"/>

    <connection from="61" to="56" fromLane="0" toLane="0"/>
    <connection from="61" to="57" fromLane="0" toLane="0"/>
    <connection from="61" to="57" fromLane="1" toLane="1"/>
    <connection from="61" to="57" fromLane="2" toLane="2"/>
    <connection from="61" to="59" fromLane="2" toLane="2"/>
    <connection from="61" to="58" fromLane="2" toLane="2"/>

    <connection from="62" to="66" fromLane="0" toLane="0"/>
    <connection from="62" to="66" fromLane="1" toLane="1"/>
    <connection from="62" to="64" fromLane="2" toLane="1"/>
    <connection from="62" to="64" fromLane="2" toLane="2"/>
    <connection from="62" to="65" fromLane="2" toLane="2"/>

    <connection from="63" to="76" fromLane="0" toLane="0"/>
    <connection from="63" to="76" fromLane="1" toLane="1"/>
    <connection from="63" to="77" fromLane="2" toLane="1"/>
    <connection from="63" to="77" fromLane="2" toLane="2"/>
    <connection from="63" to="75" fromLane="2" toLane="2"/>

    <connection from="64" to="46" fromLane="0" toLane="0"/>
    <connection from="64" to="46" fromLane="1" toLane="1"/>
    <connection from="64" to="46" fromLane="2" toLane="2"/>
    <connection from="64" to="47" fromLane="2" toLane="2"/>
    <connection from="64" to="48" fromLane="2" toLane="2"/>

    <connection from="65" to="60" fromLane="0" toLane="0"/>
    <connection from="65" to="61" fromLane="0" toLane="0"/>
    <connection from="65" to="61" fromLane="1" toLane="1"/>
    <connection from="65" to="61" fromLane="2" toLane="2"/>
    <connection from="65" to="63" fromLane="2" toLane="2"/>
    <connection from="65" to="62" fromLane="2" toLane="2"/>

    <connection from="66" to="79" fromLane="0" toLane="0"/>
    <connection from="66" to="79" fromLane="1" toLane="1"/>
    <connection from="66" to="79" fromLane="2" toLane="2"/>

    <connection from="67" to="50" fromLane="0" toLane="0"/>
    <connection from="67" to="49" fromLane="0" toLane="0"/>
    <connection from="67" to="49" fromLane="1" toLane="1"/>
    <connection from="67" to="49" fromLane="2" toLane="2"/>
    <connection from="67" to="51" fromLane="2" toLane="2"/>

    <connection from="68" to="71" fromLane="0" toLane="0"/>
    <connection from="68" to="71" fromLane="1" toLane="1"/>
    <connection from="68" to="71" fromLane="2" toLane="2"/>
    <connection from="68" to="69" fromLane="2" toLane="1"/>
    <connection from="68" to="69" fromLane="2" toLane="2"/>
    <connection from="68" to="70" fromLane="2" toLane="2"/>

    <connection from="69" to="54" fromLane="0" toLane="0"/>
    <connection from="69" to="52" fromLane="0" toLane="0"/>
    <connection from="69" to="52" fromLane="1" toLane="1"/>
    <connection from="69" to="52" fromLane="2" toLane="2"/>
    <connection from="69" to="53" fromLane="2" toLane="2"/>
    <connection from="69" to="55" fromLane="2" toLane="2"/>

    <connection from="7" to="21" fromLane="0" toLane="0"/>
    <connection from="7" to="23" fromLane="0" toLane="0"/>
    <connection from="7" to="23" fromLane="1" toLane="1"/>
    <connection from="7" to="23" fromLane="2" toLane="2"/>
    <connection from="7" to="22" fromLane="2" toLane="2"/>
    <connection from="7" to="20" fromLane="2" toLane="2"/>

    <connection from="70" to="67" fromLane="0" toLane="0"/>
    <connection from="70" to="67" fromLane="1" toLane="1"/>
    <connection from="70" to="67" fromLane="2" toLane="2"/>

    <connection from="71" to="74" fromLane="0" toLane="0"/>
    <connection from="71" to="74" fromLane="1" toLane="1"/>
    <connection from="71" to="74" fromLane="2" toLane="2"/>
    <connection from="71" to="72" fromLane="2" toLane="2"/>
    <connection from="71" to="73" fromLane="2" toLane="2"/>

    <connection from="72" to="58" fromLane="0" toLane="0"/>
    <connection from="72" to="56" fromLane="0" toLane="0"/>
    <connection from="72" to="56" fromLane="1" toLane="1"/>
    <connection from="72" to="56" fromLane="2" toLane="2"/>
    <connection from="72" to="57" fromLane="2" toLane="2"/>
    <connection from="72" to="59" fromLane="2" toLane="2"/>

    <connection from="73" to="69" fromLane="0" toLane="0"/>
    <connection from="73" to="70" fromLane="0" toLane="0"/>
    <connection from="73" to="70" fromLane="1" toLane="1"/>
    <connection from="73" to="70" fromLane="2" toLane="2"/>
    <connection from="73" to="71" fromLane="2" toLane="2"/>

    <connection from="74" to="77" fromLane="0" toLane="0"/>
    <connection from="74" to="77" fromLane="1" toLane="1"/>
    <connection from="74" to="77" fromLane="2" toLane="2"/>
    <connection from="74" to="75" fromLane="2" toLane="1"/>
    <connection from="74" to="75" fromLane="2" toLane="2"/>
    <connection from="74" to="76" fromLane="2" toLane="2"/>

    <connection from="75" to="62" fromLane="0" toLane="0"/>
    <connection from="75" to="60" fromLane="0" toLane="0"/>
    <connection from="75" to="60" fromLane="1" toLane="1"/>
    <connection from="75" to="60" fromLane="2" toLane="2"/>
    <connection from="75" to="61" fromLane="2" toLane="2"/>
    <connection from="75" to="63" fromLane="2" toLane="2"/>

    <connection from="76" to="72" fromLane="0" toLane="0"/>
    <connection from="76" to="73" fromLane="0" toLane="0"/>
    <connection from="76" to="73" fromLane="1" toLane="1"/>
    <connection from="76" to="73" fromLane="2" toLane="2"/>
    <connection from="76" to="74" fromLane="2" toLane="2"/>

    <connection from="77" to="78" fromLane="0" toLane="0"/>
    <connection from="77" to="78" fromLane="1" toLane="1"/>
    <connection from="77" to="78" fromLane="2" toLane="2"/>

    <connection from="78" to="64" fromLane="0" toLane="0"/>
    <connection from="78" to="64" fromLane="1" toLane="1"/>
    <connection from="78" to="64" fromLane="2" toLane="2"/>
    <connection from="78" to="65" fromLane="2" toLane="1"/>
    <connection from="78" to="65" fromLane="2" toLane="2"/>
    <connection from="78" to="66" fromLane="2" toLane="2"/>

    <connection from="79" to="75" fromLane="0" toLane="0"/>
    <connection from="79" to="76" fromLane="0" toLane="0"/>
    <connection from="79" to="76" fromLane="1" toLane="1"/>
    <connection from="79" to="76" fromLane="2" toLane="2"/>
    <connection from="79" to="77" fromLane="2" toLane="2"/>

    <connection from="8" to="5" fromLane="0" toLane="0"/>
    <connection from="8" to="5" fromLane="1" toLane="1"/>
    <connection from="8" to="5" fromLane="2" toLane="2"/>
    <connection from="8" to="7" fromLane="2" toLane="2"/>
    <connection from="8" to="6" fromLane="2" toLane="2"/>

    <connection from="80"/>

    <connection from="81" to="5" fromLane="0" toLane="0"/>
    <connection from="81" to="7" fromLane="0" toLane="0"/>
    <connection from="81" to="7" fromLane="1" toLane="1"/>
    <connection from="81" to="7" fromLane="2" toLane="2"/>
    <connection from="81" to="6" fromLane="2" toLane="2"/>

    <connection from="82" to="80" fromLane="0" toLane="0"/>
    <connection from="82" to="80" fromLane="1" toLane="1"/>
    <connection from="82" to="80" fromLane="2" toLane="2"/>

    <connection from="83" to="46" fromLane="0" toLane="0"/>
    <connection from="83" to="47" fromLane="0" toLane="0"/>
    <connection from="83" to="47" fromLane="1" toLane="1"/>
    <connection from="83" to="47" fromLane="2" toLane="2"/>
    <connection from="83" to="48" fromLane="2" toLane="2"/>

    <connection from="84"/>

    <connection from="85" to="84" fromLane="0" toLane="0"/>
    <connection from="85" to="84" fromLane="1" toLane="1"/>
    <connection from="85" to="84" fromLane="2" toLane="2"/>

    <connection from="86" to="74" fromLane="0" toLane="0"/>
    <connection from="86" to="72" fromLane="0" toLane="0"/>
    <connection from="86" to="72" fromLane="1" toLane="1"/>
    <connection from="86" to="72" fromLane="2" toLane="2"/>
    <connection from="86" to="73" fromLane="2" toLane="2"/>

    <connection from="87"/>

    <connection from="88" to="87" fromLane="0" toLane="0"/>
    <connection from="88" to="87" fromLane="1" toLane="1"/>
    <connection from="88" to="87" fromLane="2" toLane="2"/>

    <connection from="89"/>

    <connection from="9" to="12" fromLane="0" toLane="0"/>
    <connection from="9" to="12" fromLane="1" toLane="1"/>
    <connection from="9" to="12" fromLane="2" toLane="2"/>

    <connection from="90" to="33" fromLane="0" toLane="0"/>
    <connection from="90" to="32" fromLane="0" toLane="0"/>
    <connection from="90" to="32" fromLane="1" toLane="1"/>
    <connection from="90" to="32" fromLane="2" toLane="2"/>
    <connection from="90" to="31" fromLane="2" toLane="2"/>

    <connection from="91" to="89" fromLane="0" toLane="0"/>
    <connection from="91" to="89" fromLane="1" toLane="1"/>
    <connection from="91" to="89" fromLane="2" toLane="2"/>

    <connection from="92" to="81" fromLane="0" toLane="0"/>
    <connection from="92" to="81" fromLane="1" toLane="1"/>
    <connection from="92" to="81" fromLane="2" toLane="2"/>

    <connection from="93" to="83" fromLane="0" toLane="0"/>
    <connection from="93" to="83" fromLane="1" toLane="1"/>
    <connection from="93" to="83" fromLane="2" toLane="2"/>
