<?xml version="1.0" encoding="UTF-8"?>

<!-- generated on 2024-05-22 23:22:20 by Eclipse SUMO netedit Version 1.18.0
-->

<additional xmlns:xsi="http://www.w3.org/2001/XMLSchema-instance" xsi:noNamespaceSchemaLocation="http://sumo.dlr.de/xsd/additional_file.xsd">
    <edgeData id="EdgeMesurements" file="../../measurements/GridBufferNew/EdgeMesurements.xml" freq="100.00" excludeEmpty='True' />
    <edgeData id="EdgeMesurements_lower" file="../../measurements/GridBufferNew/EdgeMesurements_lower.xml" freq="5.00" excludeEmpty='True' />
    <!-- Detectors -->
    <inductionLoop id="0000_in" lane="0_0" pos="1.00" period="50.00" file="../../measurements/GridBufferNew/DetectorMesurements.xml"/>
    <inductionLoop id="0000_out" lane="0_0" pos="472.20" period="50.00" file="../../measurements/GridBufferNew/DetectorMesurements.xml"/>
    <inductionLoop id="0001_in" lane="0_1" pos="1.00" period="50.00" file="../../measurements/GridBufferNew/DetectorMesurements.xml"/>
    <inductionLoop id="0001_out" lane="0_1" pos="472.20" period="50.00" file="../../measurements/GridBufferNew/DetectorMesurements.xml"/>
    <inductionLoop id="0002_in" lane="0_2" pos="1.00" period="50.00" file="../../measurements/GridBufferNew/DetectorMesurements.xml"/>
    <inductionLoop id="0002_out" lane="0_2" pos="472.20" period="50.00" file="../../measurements/GridBufferNew/DetectorMesurements.xml"/>
    <inductionLoop id="10000_in" lane="10_0" pos="1.00" period="50.00" file="../../measurements/GridBufferNew/DetectorMesurements.xml"/>
    <inductionLoop id="10000_out" lane="10_0" pos="472.20" period="50.00" file="../../measurements/GridBufferNew/DetectorMesurements.xml"/>
    <inductionLoop id="10001_in" lane="10_1" pos="1.00" period="50.00" file="../../measurements/GridBufferNew/DetectorMesurements.xml"/>
    <inductionLoop id="10001_out" lane="10_1" pos="472.20" period="50.00" file="../../measurements/GridBufferNew/DetectorMesurements.xml"/>
    <inductionLoop id="10002_in" lane="10_2" pos="1.00" period="50.00" file="../../measurements/GridBufferNew/DetectorMesurements.xml"/>
    <inductionLoop id="10002_out" lane="10_2" pos="472.20" period="50.00" file="../../measurements/GridBufferNew/DetectorMesurements.xml"/>
    <inductionLoop id="1000_in" lane="1_0" pos="1.00" period="50.00" file="../../measurements/GridBufferNew/DetectorMesurements.xml"/>
    <inductionLoop id="1000_out" lane="1_0" pos="472.20" period="50.00" file="../../measurements/GridBufferNew/DetectorMesurements.xml"/>
    <inductionLoop id="1001_in" lane="1_1" pos="1.00" period="50.00" file="../../measurements/GridBufferNew/DetectorMesurements.xml"/>
    <inductionLoop id="1001_out" lane="1_1" pos="472.20" period="50.00" file="../../measurements/GridBufferNew/DetectorMesurements.xml"/>
    <inductionLoop id="1002_in" lane="1_2" pos="1.00" period="50.00" file="../../measurements/GridBufferNew/DetectorMesurements.xml"/>
    <inductionLoop id="1002_out" lane="1_2" pos="472.20" period="50.00" file="../../measurements/GridBufferNew/DetectorMesurements.xml"/>
    <inductionLoop id="11000_in" lane="11_0" pos="1.00" period="50.00" file="../../measurements/GridBufferNew/DetectorMesurements.xml"/>
    <inductionLoop id="11000_out" lane="11_0" pos="472.20" period="50.00" file="../../measurements/GridBufferNew/DetectorMesurements.xml"/>
    <inductionLoop id="11001_in" lane="11_1" pos="1.00" period="50.00" file="../../measurements/GridBufferNew/DetectorMesurements.xml"/>
    <inductionLoop id="11001_out" lane="11_1" pos="472.20" period="50.00" file="../../measurements/GridBufferNew/DetectorMesurements.xml"/>
    <inductionLoop id="11002_in" lane="11_2" pos="1.00" period="50.00" file="../../measurements/GridBufferNew/DetectorMesurements.xml"/>
    <inductionLoop id="11002_out" lane="11_2" pos="472.20" period="50.00" file="../../measurements/GridBufferNew/DetectorMesurements.xml"/>
    <inductionLoop id="12000_in" lane="12_0" pos="1.00" period="50.00" file="../../measurements/GridBufferNew/DetectorMesurements.xml"/>
    <inductionLoop id="12000_out" lane="12_0" pos="472.20" period="50.00" file="../../measurements/GridBufferNew/DetectorMesurements.xml"/>
    <inductionLoop id="12001_in" lane="12_1" pos="1.00" period="50.00" file="../../measurements/GridBufferNew/DetectorMesurements.xml"/>
    <inductionLoop id="12001_out" lane="12_1" pos="472.20" period="50.00" file="../../measurements/GridBufferNew/DetectorMesurements.xml"/>
    <inductionLoop id="12002_in" lane="12_2" pos="1.00" period="50.00" file="../../measurements/GridBufferNew/DetectorMesurements.xml"/>
    <inductionLoop id="12002_out" lane="12_2" pos="472.20" period="50.00" file="../../measurements/GridBufferNew/DetectorMesurements.xml"/>
    <inductionLoop id="13000_in" lane="13_0" pos="1.00" period="50.00" file="../../measurements/GridBufferNew/DetectorMesurements.xml"/>
    <inductionLoop id="13000_out" lane="13_0" pos="472.20" period="50.00" file="../../measurements/GridBufferNew/DetectorMesurements.xml"/>
    <inductionLoop id="13001_in" lane="13_1" pos="1.00" period="50.00" file="../../measurements/GridBufferNew/DetectorMesurements.xml"/>
    <inductionLoop id="13001_out" lane="13_1" pos="472.20" period="50.00" file="../../measurements/GridBufferNew/DetectorMesurements.xml"/>
    <inductionLoop id="13002_in" lane="13_2" pos="1.00" period="50.00" file="../../measurements/GridBufferNew/DetectorMesurements.xml"/>
    <inductionLoop id="13002_out" lane="13_2" pos="472.20" period="50.00" file="../../measurements/GridBufferNew/DetectorMesurements.xml"/>
    <inductionLoop id="14000_in" lane="14_0" pos="1.00" period="50.00" file="../../measurements/GridBufferNew/DetectorMesurements.xml"/>
    <inductionLoop id="14000_out" lane="14_0" pos="472.20" period="50.00" file="../../measurements/GridBufferNew/DetectorMesurements.xml"/>
    <inductionLoop id="14001_in" lane="14_1" pos="1.00" period="50.00" file="../../measurements/GridBufferNew/DetectorMesurements.xml"/>
    <inductionLoop id="14001_out" lane="14_1" pos="472.20" period="50.00" file="../../measurements/GridBufferNew/DetectorMesurements.xml"/>
    <inductionLoop id="14002_in" lane="14_2" pos="1.00" period="50.00" file="../../measurements/GridBufferNew/DetectorMesurements.xml"/>
    <inductionLoop id="14002_out" lane="14_2" pos="472.20" period="50.00" file="../../measurements/GridBufferNew/DetectorMesurements.xml"/>
    <inductionLoop id="15000_in" lane="15_0" pos="1.00" period="50.00" file="../../measurements/GridBufferNew/DetectorMesurements.xml"/>
    <inductionLoop id="15000_out" lane="15_0" pos="472.20" period="50.00" file="../../measurements/GridBufferNew/DetectorMesurements.xml"/>
    <inductionLoop id="15001_in" lane="15_1" pos="1.00" period="50.00" file="../../measurements/GridBufferNew/DetectorMesurements.xml"/>
    <inductionLoop id="15001_out" lane="15_1" pos="472.20" period="50.00" file="../../measurements/GridBufferNew/DetectorMesurements.xml"/>
    <inductionLoop id="15002_in" lane="15_2" pos="1.00" period="50.00" file="../../measurements/GridBufferNew/DetectorMesurements.xml"/>
    <inductionLoop id="15002_out" lane="15_2" pos="472.20" period="50.00" file="../../measurements/GridBufferNew/DetectorMesurements.xml"/>
    <inductionLoop id="150_in" lane="15_0" pos="250.00" period="300.00" file="../../measurements/GridBufferNew/DetectorMesurements.xml"/>
    <inductionLoop id="151_in" lane="15_1" pos="250.00" period="300.00" file="../../measurements/GridBufferNew/DetectorMesurements.xml"/>
    <inductionLoop id="152_in" lane="15_2" pos="250.00" period="300.00" file="../../measurements/GridBufferNew/DetectorMesurements.xml"/>
    <inductionLoop id="16000_in" lane="16_0" pos="1.00" period="50.00" file="../../measurements/GridBufferNew/DetectorMesurements.xml"/>
    <inductionLoop id="16000_out" lane="16_0" pos="472.20" period="50.00" file="../../measurements/GridBufferNew/DetectorMesurements.xml"/>
    <inductionLoop id="16001_in" lane="16_1" pos="1.00" period="50.00" file="../../measurements/GridBufferNew/DetectorMesurements.xml"/>
    <inductionLoop id="16001_out" lane="16_1" pos="472.20" period="50.00" file="../../measurements/GridBufferNew/DetectorMesurements.xml"/>
    <inductionLoop id="16002_in" lane="16_2" pos="1.00" period="50.00" file="../../measurements/GridBufferNew/DetectorMesurements.xml"/>
    <inductionLoop id="16002_out" lane="16_2" pos="472.20" period="50.00" file="../../measurements/GridBufferNew/DetectorMesurements.xml"/>
    <inductionLoop id="17000_in" lane="17_0" pos="1.00" period="50.00" file="../../measurements/GridBufferNew/DetectorMesurements.xml"/>
    <inductionLoop id="17000_out" lane="17_0" pos="472.20" period="50.00" file="../../measurements/GridBufferNew/DetectorMesurements.xml"/>
    <inductionLoop id="17001_in" lane="17_1" pos="1.00" period="50.00" file="../../measurements/GridBufferNew/DetectorMesurements.xml"/>
    <inductionLoop id="17001_out" lane="17_1" pos="472.20" period="50.00" file="../../measurements/GridBufferNew/DetectorMesurements.xml"/>
    <inductionLoop id="17002_in" lane="17_2" pos="1.00" period="50.00" file="../../measurements/GridBufferNew/DetectorMesurements.xml"/>
    <inductionLoop id="17002_out" lane="17_2" pos="472.20" period="50.00" file="../../measurements/GridBufferNew/DetectorMesurements.xml"/>
    <inductionLoop id="18000_in" lane="18_0" pos="1.00" period="50.00" file="../../measurements/GridBufferNew/DetectorMesurements.xml"/>
    <inductionLoop id="18000_out" lane="18_0" pos="472.20" period="50.00" file="../../measurements/GridBufferNew/DetectorMesurements.xml"/>
    <inductionLoop id="18001_in" lane="18_1" pos="1.00" period="50.00" file="../../measurements/GridBufferNew/DetectorMesurements.xml"/>
    <inductionLoop id="18001_out" lane="18_1" pos="472.20" period="50.00" file="../../measurements/GridBufferNew/DetectorMesurements.xml"/>
    <inductionLoop id="18002_in" lane="18_2" pos="1.00" period="50.00" file="../../measurements/GridBufferNew/DetectorMesurements.xml"/>
    <inductionLoop id="18002_out" lane="18_2" pos="472.20" period="50.00" file="../../measurements/GridBufferNew/DetectorMesurements.xml"/>
    <inductionLoop id="19000_in" lane="19_0" pos="1.00" period="50.00" file="../../measurements/GridBufferNew/DetectorMesurements.xml"/>
    <inductionLoop id="19000_out" lane="19_0" pos="472.20" period="50.00" file="../../measurements/GridBufferNew/DetectorMesurements.xml"/>
    <inductionLoop id="19001_in" lane="19_1" pos="1.00" period="50.00" file="../../measurements/GridBufferNew/DetectorMesurements.xml"/>
    <inductionLoop id="19001_out" lane="19_1" pos="472.20" period="50.00" file="../../measurements/GridBufferNew/DetectorMesurements.xml"/>
    <inductionLoop id="19002_in" lane="19_2" pos="1.00" period="50.00" file="../../measurements/GridBufferNew/DetectorMesurements.xml"/>
    <inductionLoop id="19002_out" lane="19_2" pos="472.20" period="50.00" file="../../measurements/GridBufferNew/DetectorMesurements.xml"/>
    <inductionLoop id="20000_in" lane="20_0" pos="1.00" period="50.00" file="../../measurements/GridBufferNew/DetectorMesurements.xml"/>
    <inductionLoop id="20000_out" lane="20_0" pos="472.20" period="50.00" file="../../measurements/GridBufferNew/DetectorMesurements.xml"/>
    <inductionLoop id="20001_in" lane="20_1" pos="1.00" period="50.00" file="../../measurements/GridBufferNew/DetectorMesurements.xml"/>
    <inductionLoop id="20001_out" lane="20_1" pos="472.20" period="50.00" file="../../measurements/GridBufferNew/DetectorMesurements.xml"/>
    <inductionLoop id="20002_in" lane="20_2" pos="1.00" period="50.00" file="../../measurements/GridBufferNew/DetectorMesurements.xml"/>
    <inductionLoop id="20002_out" lane="20_2" pos="472.20" period="50.00" file="../../measurements/GridBufferNew/DetectorMesurements.xml"/>
    <inductionLoop id="2000_in" lane="2_0" pos="1.00" period="50.00" file="../../measurements/GridBufferNew/DetectorMesurements.xml"/>
    <inductionLoop id="2000_out" lane="2_0" pos="472.20" period="50.00" file="../../measurements/GridBufferNew/DetectorMesurements.xml"/>
    <inductionLoop id="2001_in" lane="2_1" pos="1.00" period="50.00" file="../../measurements/GridBufferNew/DetectorMesurements.xml"/>
    <inductionLoop id="2001_out" lane="2_1" pos="472.20" period="50.00" file="../../measurements/GridBufferNew/DetectorMesurements.xml"/>
    <inductionLoop id="2002_in" lane="2_2" pos="1.00" period="50.00" file="../../measurements/GridBufferNew/DetectorMesurements.xml"/>
    <inductionLoop id="2002_out" lane="2_2" pos="472.20" period="50.00" file="../../measurements/GridBufferNew/DetectorMesurements.xml"/>
    <inductionLoop id="200_in" lane="20_0" pos="250.00" period="300.00" file="../../measurements/GridBufferNew/DetectorMesurements.xml"/>
    <inductionLoop id="201_in" lane="20_1" pos="250.00" period="300.00" file="../../measurements/GridBufferNew/DetectorMesurements.xml"/>
    <inductionLoop id="202_in" lane="20_2" pos="250.00" period="300.00" file="../../measurements/GridBufferNew/DetectorMesurements.xml"/>
    <inductionLoop id="21000_in" lane="21_0" pos="1.00" period="50.00" file="../../measurements/GridBufferNew/DetectorMesurements.xml"/>
    <inductionLoop id="21000_out" lane="21_0" pos="472.20" period="50.00" file="../../measurements/GridBufferNew/DetectorMesurements.xml"/>
    <inductionLoop id="21001_in" lane="21_1" pos="1.00" period="50.00" file="../../measurements/GridBufferNew/DetectorMesurements.xml"/>
    <inductionLoop id="21001_out" lane="21_1" pos="472.20" period="50.00" file="../../measurements/GridBufferNew/DetectorMesurements.xml"/>
    <inductionLoop id="21002_in" lane="21_2" pos="1.00" period="50.00" file="../../measurements/GridBufferNew/DetectorMesurements.xml"/>
    <inductionLoop id="21002_out" lane="21_2" pos="472.20" period="50.00" file="../../measurements/GridBufferNew/DetectorMesurements.xml"/>
    <inductionLoop id="22000_in" lane="22_0" pos="1.00" period="50.00" file="../../measurements/GridBufferNew/DetectorMesurements.xml"/>
    <inductionLoop id="22000_out" lane="22_0" pos="472.20" period="50.00" file="../../measurements/GridBufferNew/DetectorMesurements.xml"/>
    <inductionLoop id="22001_in" lane="22_1" pos="1.00" period="50.00" file="../../measurements/GridBufferNew/DetectorMesurements.xml"/>
    <inductionLoop id="22001_out" lane="22_1" pos="472.20" period="50.00" file="../../measurements/GridBufferNew/DetectorMesurements.xml"/>
    <inductionLoop id="22002_in" lane="22_2" pos="1.00" period="50.00" file="../../measurements/GridBufferNew/DetectorMesurements.xml"/>
    <inductionLoop id="22002_out" lane="22_2" pos="472.20" period="50.00" file="../../measurements/GridBufferNew/DetectorMesurements.xml"/>
    <inductionLoop id="23000_in" lane="23_0" pos="1.00" period="50.00" file="../../measurements/GridBufferNew/DetectorMesurements.xml"/>
    <inductionLoop id="23000_out" lane="23_0" pos="472.20" period="50.00" file="../../measurements/GridBufferNew/DetectorMesurements.xml"/>
    <inductionLoop id="23001_in" lane="23_1" pos="1.00" period="50.00" file="../../measurements/GridBufferNew/DetectorMesurements.xml"/>
    <inductionLoop id="23001_out" lane="23_1" pos="472.20" period="50.00" file="../../measurements/GridBufferNew/DetectorMesurements.xml"/>
    <inductionLoop id="23002_in" lane="23_2" pos="1.00" period="50.00" file="../../measurements/GridBufferNew/DetectorMesurements.xml"/>
    <inductionLoop id="23002_out" lane="23_2" pos="472.20" period="50.00" file="../../measurements/GridBufferNew/DetectorMesurements.xml"/>
    <inductionLoop id="24000_in" lane="24_0" pos="1.00" period="50.00" file="../../measurements/GridBufferNew/DetectorMesurements.xml"/>
    <inductionLoop id="24000_out" lane="24_0" pos="472.20" period="50.00" file="../../measurements/GridBufferNew/DetectorMesurements.xml"/>
    <inductionLoop id="24001_in" lane="24_1" pos="1.00" period="50.00" file="../../measurements/GridBufferNew/DetectorMesurements.xml"/>
    <inductionLoop id="24001_out" lane="24_1" pos="472.20" period="50.00" file="../../measurements/GridBufferNew/DetectorMesurements.xml"/>
    <inductionLoop id="24002_in" lane="24_2" pos="1.00" period="50.00" file="../../measurements/GridBufferNew/DetectorMesurements.xml"/>
    <inductionLoop id="24002_out" lane="24_2" pos="472.20" period="50.00" file="../../measurements/GridBufferNew/DetectorMesurements.xml"/>
    <inductionLoop id="25000_in" lane="25_0" pos="1.00" period="50.00" file="../../measurements/GridBufferNew/DetectorMesurements.xml"/>
    <inductionLoop id="25000_out" lane="25_0" pos="472.20" period="50.00" file="../../measurements/GridBufferNew/DetectorMesurements.xml"/>
    <inductionLoop id="25001_in" lane="25_1" pos="1.00" period="50.00" file="../../measurements/GridBufferNew/DetectorMesurements.xml"/>
    <inductionLoop id="25001_out" lane="25_1" pos="472.20" period="50.00" file="../../measurements/GridBufferNew/DetectorMesurements.xml"/>
    <inductionLoop id="25002_in" lane="25_2" pos="1.00" period="50.00" file="../../measurements/GridBufferNew/DetectorMesurements.xml"/>
    <inductionLoop id="25002_out" lane="25_2" pos="472.20" period="50.00" file="../../measurements/GridBufferNew/DetectorMesurements.xml"/>
    <inductionLoop id="26000_in" lane="26_0" pos="1.00" period="50.00" file="../../measurements/GridBufferNew/DetectorMesurements.xml"/>
    <inductionLoop id="26000_out" lane="26_0" pos="472.20" period="50.00" file="../../measurements/GridBufferNew/DetectorMesurements.xml"/>
    <inductionLoop id="26001_in" lane="26_1" pos="1.00" period="50.00" file="../../measurements/GridBufferNew/DetectorMesurements.xml"/>
    <inductionLoop id="26001_out" lane="26_1" pos="472.20" period="50.00" file="../../measurements/GridBufferNew/DetectorMesurements.xml"/>
    <inductionLoop id="26002_in" lane="26_2" pos="1.00" period="50.00" file="../../measurements/GridBufferNew/DetectorMesurements.xml"/>
    <inductionLoop id="26002_out" lane="26_2" pos="472.20" period="50.00" file="../../measurements/GridBufferNew/DetectorMesurements.xml"/>
    <inductionLoop id="27000_in" lane="27_0" pos="1.00" period="50.00" file="../../measurements/GridBufferNew/DetectorMesurements.xml"/>
    <inductionLoop id="27000_out" lane="27_0" pos="472.20" period="50.00" file="../../measurements/GridBufferNew/DetectorMesurements.xml"/>
    <inductionLoop id="27001_in" lane="27_1" pos="1.00" period="50.00" file="../../measurements/GridBufferNew/DetectorMesurements.xml"/>
    <inductionLoop id="27001_out" lane="27_1" pos="472.20" period="50.00" file="../../measurements/GridBufferNew/DetectorMesurements.xml"/>
    <inductionLoop id="27002_in" lane="27_2" pos="1.00" period="50.00" file="../../measurements/GridBufferNew/DetectorMesurements.xml"/>
    <inductionLoop id="27002_out" lane="27_2" pos="472.20" period="50.00" file="../../measurements/GridBufferNew/DetectorMesurements.xml"/>
    <inductionLoop id="28000_in" lane="28_0" pos="1.00" period="50.00" file="../../measurements/GridBufferNew/DetectorMesurements.xml"/>
    <inductionLoop id="28000_out" lane="28_0" pos="472.20" period="50.00" file="../../measurements/GridBufferNew/DetectorMesurements.xml"/>
    <inductionLoop id="28001_in" lane="28_1" pos="1.00" period="50.00" file="../../measurements/GridBufferNew/DetectorMesurements.xml"/>
    <inductionLoop id="28001_out" lane="28_1" pos="472.20" period="50.00" file="../../measurements/GridBufferNew/DetectorMesurements.xml"/>
    <inductionLoop id="28002_in" lane="28_2" pos="1.00" period="50.00" file="../../measurements/GridBufferNew/DetectorMesurements.xml"/>
    <inductionLoop id="28002_out" lane="28_2" pos="472.20" period="50.00" file="../../measurements/GridBufferNew/DetectorMesurements.xml"/>
    <inductionLoop id="29000_in" lane="29_0" pos="1.00" period="50.00" file="../../measurements/GridBufferNew/DetectorMesurements.xml"/>
    <inductionLoop id="29000_out" lane="29_0" pos="472.20" period="50.00" file="../../measurements/GridBufferNew/DetectorMesurements.xml"/>
    <inductionLoop id="29001_in" lane="29_1" pos="1.00" period="50.00" file="../../measurements/GridBufferNew/DetectorMesurements.xml"/>
    <inductionLoop id="29001_out" lane="29_1" pos="472.20" period="50.00" file="../../measurements/GridBufferNew/DetectorMesurements.xml"/>
    <inductionLoop id="29002_in" lane="29_2" pos="1.00" period="50.00" file="../../measurements/GridBufferNew/DetectorMesurements.xml"/>
    <inductionLoop id="29002_out" lane="29_2" pos="472.20" period="50.00" file="../../measurements/GridBufferNew/DetectorMesurements.xml"/>
    <inductionLoop id="30000_in" lane="30_0" pos="1.00" period="50.00" file="../../measurements/GridBufferNew/DetectorMesurements.xml"/>
    <inductionLoop id="30000_out" lane="30_0" pos="472.20" period="50.00" file="../../measurements/GridBufferNew/DetectorMesurements.xml"/>
    <inductionLoop id="30001_in" lane="30_1" pos="1.00" period="50.00" file="../../measurements/GridBufferNew/DetectorMesurements.xml"/>
    <inductionLoop id="30001_out" lane="30_1" pos="472.20" period="50.00" file="../../measurements/GridBufferNew/DetectorMesurements.xml"/>
    <inductionLoop id="30002_in" lane="30_2" pos="1.00" period="50.00" file="../../measurements/GridBufferNew/DetectorMesurements.xml"/>
    <inductionLoop id="30002_out" lane="30_2" pos="472.20" period="50.00" file="../../measurements/GridBufferNew/DetectorMesurements.xml"/>
    <inductionLoop id="3000_in" lane="3_0" pos="1.00" period="50.00" file="../../measurements/GridBufferNew/DetectorMesurements.xml"/>
    <inductionLoop id="3000_out" lane="3_0" pos="472.20" period="50.00" file="../../measurements/GridBufferNew/DetectorMesurements.xml"/>
    <inductionLoop id="3001_in" lane="3_1" pos="1.00" period="50.00" file="../../measurements/GridBufferNew/DetectorMesurements.xml"/>
    <inductionLoop id="3001_out" lane="3_1" pos="472.20" period="50.00" file="../../measurements/GridBufferNew/DetectorMesurements.xml"/>
    <inductionLoop id="3002_in" lane="3_2" pos="1.00" period="50.00" file="../../measurements/GridBufferNew/DetectorMesurements.xml"/>
    <inductionLoop id="3002_out" lane="3_2" pos="472.20" period="50.00" file="../../measurements/GridBufferNew/DetectorMesurements.xml"/>
    <inductionLoop id="300_in" lane="30_0" pos="250.00" period="300.00" file="../../measurements/GridBufferNew/DetectorMesurements.xml"/>
    <inductionLoop id="301_in" lane="30_1" pos="250.00" period="300.00" file="../../measurements/GridBufferNew/DetectorMesurements.xml"/>
    <inductionLoop id="302_in" lane="30_2" pos="250.00" period="300.00" file="../../measurements/GridBufferNew/DetectorMesurements.xml"/>
    <inductionLoop id="30_in" lane="3_0" pos="250.00" period="300.00" file="../../measurements/GridBufferNew/DetectorMesurements.xml"/>
    <inductionLoop id="31000_in" lane="31_0" pos="1.00" period="50.00" file="../../measurements/GridBufferNew/DetectorMesurements.xml"/>
    <inductionLoop id="31000_out" lane="31_0" pos="472.20" period="50.00" file="../../measurements/GridBufferNew/DetectorMesurements.xml"/>
    <inductionLoop id="31001_in" lane="31_1" pos="1.00" period="50.00" file="../../measurements/GridBufferNew/DetectorMesurements.xml"/>
    <inductionLoop id="31001_out" lane="31_1" pos="472.20" period="50.00" file="../../measurements/GridBufferNew/DetectorMesurements.xml"/>
    <inductionLoop id="31002_in" lane="31_2" pos="1.00" period="50.00" file="../../measurements/GridBufferNew/DetectorMesurements.xml"/>
    <inductionLoop id="31002_out" lane="31_2" pos="472.20" period="50.00" file="../../measurements/GridBufferNew/DetectorMesurements.xml"/>
    <inductionLoop id="31_in" lane="3_1" pos="250.00" period="300.00" file="../../measurements/GridBufferNew/DetectorMesurements.xml"/>
    <inductionLoop id="32000_in" lane="32_0" pos="1.00" period="50.00" file="../../measurements/GridBufferNew/DetectorMesurements.xml"/>
    <inductionLoop id="32000_out" lane="32_0" pos="472.20" period="50.00" file="../../measurements/GridBufferNew/DetectorMesurements.xml"/>
    <inductionLoop id="32001_in" lane="32_1" pos="1.00" period="50.00" file="../../measurements/GridBufferNew/DetectorMesurements.xml"/>
    <inductionLoop id="32001_out" lane="32_1" pos="472.20" period="50.00" file="../../measurements/GridBufferNew/DetectorMesurements.xml"/>
    <inductionLoop id="32002_in" lane="32_2" pos="1.00" period="50.00" file="../../measurements/GridBufferNew/DetectorMesurements.xml"/>
    <inductionLoop id="32002_out" lane="32_2" pos="472.20" period="50.00" file="../../measurements/GridBufferNew/DetectorMesurements.xml"/>
    <inductionLoop id="32_in" lane="3_2" pos="250.00" period="300.00" file="../../measurements/GridBufferNew/DetectorMesurements.xml"/>
    <inductionLoop id="33000_in" lane="33_0" pos="1.00" period="50.00" file="../../measurements/GridBufferNew/DetectorMesurements.xml"/>
    <inductionLoop id="33000_out" lane="33_0" pos="472.20" period="50.00" file="../../measurements/GridBufferNew/DetectorMesurements.xml"/>
    <inductionLoop id="33001_in" lane="33_1" pos="1.00" period="50.00" file="../../measurements/GridBufferNew/DetectorMesurements.xml"/>
    <inductionLoop id="33001_out" lane="33_1" pos="472.20" period="50.00" file="../../measurements/GridBufferNew/DetectorMesurements.xml"/>
    <inductionLoop id="33002_in" lane="33_2" pos="1.00" period="50.00" file="../../measurements/GridBufferNew/DetectorMesurements.xml"/>
    <inductionLoop id="33002_out" lane="33_2" pos="472.20" period="50.00" file="../../measurements/GridBufferNew/DetectorMesurements.xml"/>
    <inductionLoop id="34000_in" lane="34_0" pos="1.00" period="50.00" file="../../measurements/GridBufferNew/DetectorMesurements.xml"/>
    <inductionLoop id="34000_out" lane="34_0" pos="472.20" period="50.00" file="../../measurements/GridBufferNew/DetectorMesurements.xml"/>
    <inductionLoop id="34001_in" lane="34_1" pos="1.00" period="50.00" file="../../measurements/GridBufferNew/DetectorMesurements.xml"/>
    <inductionLoop id="34001_out" lane="34_1" pos="472.20" period="50.00" file="../../measurements/GridBufferNew/DetectorMesurements.xml"/>
    <inductionLoop id="34002_in" lane="34_2" pos="1.00" period="50.00" file="../../measurements/GridBufferNew/DetectorMesurements.xml"/>
    <inductionLoop id="34002_out" lane="34_2" pos="472.20" period="50.00" file="../../measurements/GridBufferNew/DetectorMesurements.xml"/>
    <inductionLoop id="35000_in" lane="35_0" pos="1.00" period="50.00" file="../../measurements/GridBufferNew/DetectorMesurements.xml"/>
    <inductionLoop id="35000_out" lane="35_0" pos="472.20" period="50.00" file="../../measurements/GridBufferNew/DetectorMesurements.xml"/>
    <inductionLoop id="35001_in" lane="35_1" pos="1.00" period="50.00" file="../../measurements/GridBufferNew/DetectorMesurements.xml"/>
    <inductionLoop id="35001_out" lane="35_1" pos="472.20" period="50.00" file="../../measurements/GridBufferNew/DetectorMesurements.xml"/>
    <inductionLoop id="35002_in" lane="35_2" pos="1.00" period="50.00" file="../../measurements/GridBufferNew/DetectorMesurements.xml"/>
    <inductionLoop id="35002_out" lane="35_2" pos="472.20" period="50.00" file="../../measurements/GridBufferNew/DetectorMesurements.xml"/>
    <inductionLoop id="350_in" lane="35_0" pos="250.00" period="300.00" file="../../measurements/GridBufferNew/DetectorMesurements.xml"/>
    <inductionLoop id="351_in" lane="35_1" pos="250.00" period="300.00" file="../../measurements/GridBufferNew/DetectorMesurements.xml"/>
    <inductionLoop id="352_in" lane="35_2" pos="250.00" period="300.00" file="../../measurements/GridBufferNew/DetectorMesurements.xml"/>
    <inductionLoop id="36000_in" lane="36_0" pos="1.00" period="50.00" file="../../measurements/GridBufferNew/DetectorMesurements.xml"/>
    <inductionLoop id="36000_out" lane="36_0" pos="472.20" period="50.00" file="../../measurements/GridBufferNew/DetectorMesurements.xml"/>
    <inductionLoop id="36001_in" lane="36_1" pos="1.00" period="50.00" file="../../measurements/GridBufferNew/DetectorMesurements.xml"/>
    <inductionLoop id="36001_out" lane="36_1" pos="472.20" period="50.00" file="../../measurements/GridBufferNew/DetectorMesurements.xml"/>
    <inductionLoop id="36002_in" lane="36_2" pos="1.00" period="50.00" file="../../measurements/GridBufferNew/DetectorMesurements.xml"/>
    <inductionLoop id="36002_out" lane="36_2" pos="472.20" period="50.00" file="../../measurements/GridBufferNew/DetectorMesurements.xml"/>
    <inductionLoop id="37000_in" lane="37_0" pos="1.00" period="50.00" file="../../measurements/GridBufferNew/DetectorMesurements.xml"/>
    <inductionLoop id="37000_out" lane="37_0" pos="472.20" period="50.00" file="../../measurements/GridBufferNew/DetectorMesurements.xml"/>
    <inductionLoop id="37001_in" lane="37_1" pos="1.00" period="50.00" file="../../measurements/GridBufferNew/DetectorMesurements.xml"/>
    <inductionLoop id="37001_out" lane="37_1" pos="472.20" period="50.00" file="../../measurements/GridBufferNew/DetectorMesurements.xml"/>
    <inductionLoop id="37002_in" lane="37_2" pos="1.00" period="50.00" file="../../measurements/GridBufferNew/DetectorMesurements.xml"/>
    <inductionLoop id="37002_out" lane="37_2" pos="472.20" period="50.00" file="../../measurements/GridBufferNew/DetectorMesurements.xml"/>
    <inductionLoop id="38000_in" lane="38_0" pos="1.00" period="50.00" file="../../measurements/GridBufferNew/DetectorMesurements.xml"/>
    <inductionLoop id="38000_out" lane="38_0" pos="472.20" period="50.00" file="../../measurements/GridBufferNew/DetectorMesurements.xml"/>
    <inductionLoop id="38001_in" lane="38_1" pos="1.00" period="50.00" file="../../measurements/GridBufferNew/DetectorMesurements.xml"/>
    <inductionLoop id="38001_out" lane="38_1" pos="472.20" period="50.00" file="../../measurements/GridBufferNew/DetectorMesurements.xml"/>
    <inductionLoop id="38002_in" lane="38_2" pos="1.00" period="50.00" file="../../measurements/GridBufferNew/DetectorMesurements.xml"/>
    <inductionLoop id="38002_out" lane="38_2" pos="472.20" period="50.00" file="../../measurements/GridBufferNew/DetectorMesurements.xml"/>