<?xml version="1.0" encoding="UTF-8"?>

<!-- generated on 2025-01-16 22:55:21 by Eclipse SUMO jtrrouter Version 1.18.0
<configuration xmlns:xsi="http://www.w3.org/2001/XMLSchema-instance" xsi:noNamespaceSchemaLocation="http://sumo.dlr.de/xsd/jtrrouterConfiguration.xsd">

    <input>
        <net-file value="network/GridBufferFull/GridBuffer.net.xml"/>
        <route-files value="network/GridBufferFull/Demands/DemandType2.flows.xml"/>
        <turn-ratio-files value="network/GridBufferFull/GridBuffer.turn.xml"/>
    </input>

    <output>
        <output-file value="network/GridBufferFull/Demands/DemandType2.trips.xml"/>
    </output>

    <processing>
        <randomize-flows value="true"/>
        <remove-loops value="true"/>
        <repair value="true"/>
        <max-edges-factor value="0.8"/>
        <accept-all-destinations value="true"/>
    </processing>

    <report>
        <no-step-log value="true"/>
    </report>

</configuration>
-->

<routes xmlns:xsi="http://www.w3.org/2001/XMLSchema-instance" xsi:noNamespaceSchemaLocation="http://sumo.dlr.de/xsd/routes_file.xsd">
    <vehicle id="F191_0.0" depart="0.56">
        <route edges="191 91 38 36 34 32 1 2 4 6 8 104"/>
    </vehicle>
    <vehicle id="F171_0.0" depart="0.79">
        <route edges="171 71 36 34 32 13 15 172"/>
    </vehicle>
    <vehicle id="F174_0.0" depart="1.15">
        <route edges="174 85 83 38 73 48 144"/>
    </vehicle>
    <vehicle id="F194_0.0" depart="1.27">
        <route edges="194 98 67 68 85 58 56 55 57 94 133"/>
    </vehicle>
    <vehicle id="F154_0.0" depart="1.83">
        <route edges="154 58 56 55 57 153"/>
    </vehicle>
    <vehicle id="F174_0.1" depart="2.36">
        <route edges="174 97 184"/>
    </vehicle>
    <vehicle id="F171_0.1" depart="2.59">
        <route edges="171 71 73 48 83 81 104"/>
    </vehicle>
    <vehicle id="F151_0.0" depart="3.52">
        <route edges="151 14 31 33 35 37 133"/>
    </vehicle>
    <vehicle id="F191_0.1" depart="3.84">
        <route edges="191 18 16 14 12 112"/>
    </vehicle>
    <vehicle id="F171_0.2" depart="6.36">
        <route edges="171 16 51 53 54 35 64 66 68 164"/>
    </vehicle>
    <vehicle id="F151_0.1" depart="7.38">
        <route edges="151 14 12 101"/>
    </vehicle>
    <vehicle id="F134_0.0" depart="7.90">
        <route edges="134 93 95 97 184"/>
    </vehicle>
    <vehicle id="F111_0.0" depart="7.91">
        <route edges="111 112"/>
    </vehicle>
    <vehicle id="F154_0.1" depart="8.26">
        <route edges="154 95 97 193"/>
    </vehicle>
    <vehicle id="F111_0.1" depart="9.74">
        <route edges="111 112"/>
    </vehicle>
    <vehicle id="F131_0.0" depart="10.31">
        <route edges="131 31 32 13 42 23 24 26 28 93 95 97 184"/>
    </vehicle>
    <vehicle id="F131_0.1" depart="12.79">
        <route edges="131 31 33 35 64 57 94 92 192"/>
    </vehicle>
    <vehicle id="F154_0.2" depart="12.90">
        <route edges="154 83 81 181"/>
    </vehicle>
    <vehicle id="F174_0.2" depart="13.05">
        <route edges="174 78 65 48 83 38 36 53 46 63 28 124"/>
    </vehicle>
    <vehicle id="F154_0.3" depart="13.17">
        <route edges="154 83 81 181"/>
    </vehicle>
    <vehicle id="F171_0.3" depart="13.56">
        <route edges="171 71 73 75 68 164"/>
    </vehicle>
    <vehicle id="F154_0.4" depart="14.02">
        <route edges="154 58 56 43 41 141"/>
    </vehicle>
    <vehicle id="F154_0.5" depart="15.72">
        <route edges="154 95 78 65 63 36 34 32 1 2 31 24 53 54 52 3 132"/>
    </vehicle>
    <vehicle id="F191_0.2" depart="16.72">
        <route edges="191 104"/>
    </vehicle>
    <vehicle id="F134_0.1" depart="17.50">
        <route edges="134 38 36 41 6 8 104"/>
    </vehicle>
    <vehicle id="F194_0.1" depart="17.81">
        <route edges="194 98 173"/>
    </vehicle>
    <vehicle id="F131_0.2" depart="18.01">
        <route edges="131 31 33 35 37 84 86 173"/>
    </vehicle>
    <vehicle id="F131_0.3" depart="18.13">
        <route edges="131 12 112"/>
    </vehicle>
    <vehicle id="F111_0.2" depart="18.39">
        <route edges="111 112"/>
    </vehicle>
    <vehicle id="F191_0.3" depart="18.68">
        <route edges="191 18 71 73 75 77 88 193"/>
    </vehicle>
    <vehicle id="F131_0.4" depart="19.60">
        <route edges="131 31 24 26 28 81 18 16 14 12 112"/>
    </vehicle>
    <vehicle id="F174_0.3" depart="20.75">
        <route edges="174 97 193"/>
    </vehicle>
    <vehicle id="F134_0.2" depart="22.71">
        <route edges="134 38 36 53 55 57 153"/>
    </vehicle>
    <vehicle id="F174_0.4" depart="25.24">
        <route edges="174 85 83 124"/>
    </vehicle>
    <vehicle id="F131_0.5" depart="25.67">
        <route edges="131 31 33 35 37 84 153"/>
    </vehicle>
    <vehicle id="F114_0.0" depart="26.67">
        <route edges="114 91 38 73 48 144"/>
    </vehicle>
    <vehicle id="F131_0.6" depart="27.36">
        <route edges="131 31 33 35 37 133"/>
    </vehicle>
    <vehicle id="F171_0.4" depart="27.48">
        <route edges="171 71 73 75 68 164"/>
    </vehicle>
    <vehicle id="F154_0.6" depart="28.69">
        <route edges="154 95 97 193"/>
    </vehicle>
    <vehicle id="F191_0.4" depart="30.86">
        <route edges="191 91 93 58 56 54 23 32 1 101"/>
    </vehicle>
    <vehicle id="F151_0.2" depart="31.30">
        <route edges="151 14 12 101"/>
    </vehicle>
    <vehicle id="F174_0.5" depart="31.80">
        <route edges="174 78 76 74 72 5 3 1 101"/>
    </vehicle>
    <vehicle id="F174_0.6" depart="32.78">
        <route edges="174 97 193"/>
    </vehicle>
    <vehicle id="F151_0.3" depart="32.80">
        <route edges="151 14 12 112"/>
    </vehicle>
    <vehicle id="F154_0.7" depart="33.22">
        <route edges="154 58 75 77 96 153"/>
    </vehicle>
    <vehicle id="F131_0.7" depart="33.65">
        <route edges="131 12 101"/>
    </vehicle>
    <vehicle id="F114_0.1" depart="34.69">
        <route edges="114 18 161"/>
    </vehicle>
    <vehicle id="F194_0.2" depart="34.87">
        <route edges="194 193"/>
    </vehicle>
    <vehicle id="F131_0.8" depart="35.86">
        <route edges="131 12 11 132"/>
    </vehicle>
    <vehicle id="F174_0.7" depart="36.47">
        <route edges="174 78 76 74 72 172"/>
    </vehicle>
    <vehicle id="F111_0.3" depart="37.69">
        <route edges="111 2 4 51 34 33 44 43 41 6 71 73 75 77 173"/>
    </vehicle>
    <vehicle id="F114_0.2" depart="38.04">
        <route edges="114 18 161"/>
    </vehicle>
    <vehicle id="F154_0.8" depart="39.03">
        <route edges="154 58 75 68 85 83 38 36 34 32 13 152"/>
    </vehicle>
    <vehicle id="F191_0.5" depart="39.05">
        <route edges="191 91 124"/>
    </vehicle>
    <vehicle id="F114_0.3" depart="39.99">
        <route edges="114 18 71 28 124"/>
    </vehicle>
    <vehicle id="F171_0.5" depart="40.24">
        <route edges="171 8 104"/>
    </vehicle>
    <vehicle id="F151_0.4" depart="41.55">
        <route edges="151 51 53 55 66 65 48 95 164"/>
    </vehicle>
    <vehicle id="F191_0.6" depart="42.16">
        <route edges="191 104"/>
    </vehicle>
    <vehicle id="F174_0.8" depart="44.03">
        <route edges="174 85 83 124"/>
    </vehicle>
    <vehicle id="F114_0.4" depart="47.01">
        <route edges="114 181"/>
    </vehicle>
    <vehicle id="F154_0.9" depart="47.80">
        <route edges="154 83 81 104"/>
    </vehicle>
    <vehicle id="F134_0.3" depart="47.94">
        <route edges="134 38 73 75 77 173"/>
    </vehicle>
    <vehicle id="F174_0.9" depart="49.13">
        <route edges="174 78 76 45 43 41 14 121"/>
    </vehicle>
    <vehicle id="F194_0.3" depart="49.87">
        <route edges="194 193"/>
    </vehicle>
    <vehicle id="F174_0.10" depart="50.60">
        <route edges="174 97 193"/>
    </vehicle>
    <vehicle id="F174_0.11" depart="50.62">
        <route edges="174 78 76 57 94 92 192"/>
    </vehicle>
    <vehicle id="F111_0.4" depart="52.36">
        <route edges="111 112"/>
    </vehicle>
    <vehicle id="F114_0.5" depart="54.34">
        <route edges="114 18 16 14 12 101"/>
    </vehicle>
    <vehicle id="F154_0.10" depart="54.70">
        <route edges="154 58 56 54 52 152"/>
    </vehicle>
    <vehicle id="F111_0.5" depart="55.65">
        <route edges="111 2 4 6 161"/>
    </vehicle>
    <vehicle id="F114_0.6" depart="57.27">
        <route edges="114 181"/>
    </vehicle>
    <vehicle id="F151_0.5" depart="57.85">
        <route edges="151 51 53 54 52 15 17 113"/>
    </vehicle>
    <vehicle id="F194_0.4" depart="58.18">
        <route edges="194 98 67 76 45 43 34 33 44 46 48 144"/>
    </vehicle>
    <vehicle id="F114_0.7" depart="59.09">
        <route edges="114 181"/>
    </vehicle>
    <vehicle id="F171_0.6" depart="63.58">
        <route edges="171 71 73 75 77 88 193"/>
    </vehicle>
    <vehicle id="F171_0.7" depart="63.62">
        <route edges="171 71 36 41 141"/>
    </vehicle>
    <vehicle id="F151_0.6" depart="63.70">
        <route edges="151 6 8 104"/>
    </vehicle>
    <vehicle id="F114_0.8" depart="65.06">
        <route edges="114 91 93 95 97 193"/>
    </vehicle>
    <vehicle id="F194_0.5" depart="65.72">
        <route edges="194 87 85 83 81 181"/>
    </vehicle>
    <vehicle id="F191_0.7" depart="67.68">
        <route edges="191 104"/>
    </vehicle>
    <vehicle id="F154_0.11" depart="67.81">
        <route edges="154 95 97 98 173"/>
    </vehicle>
    <vehicle id="F111_0.6" depart="68.48">
        <route edges="111 2 4 141"/>
    </vehicle>
    <vehicle id="F131_0.9" depart="69.48">
        <route edges="131 31 24 26 28 124"/>
    </vehicle>
    <vehicle id="F131_0.10" depart="69.49">
        <route edges="131 31 24 53 55 57 86 88 193"/>
    </vehicle>
    <vehicle id="F131_0.11" depart="72.60">
        <route edges="131 31 24 26 73 56 54 52 3 1 2 4 6 8 104"/>
    </vehicle>
    <vehicle id="F131_0.12" depart="72.68">
        <route edges="131 12 101"/>
    </vehicle>
    <vehicle id="F151_0.7" depart="73.66">
        <route edges="151 6 8 91 93 95 97 184"/>
    </vehicle>
    <vehicle id="F111_0.7" depart="75.18">
        <route edges="111 11 22 33 44 43 26 28 81 181"/>
    </vehicle>
    <vehicle id="F154_0.12" depart="75.74">
        <route edges="154 58 75 76 45 43 26 73 48 95 97 193"/>
    </vehicle>
    <vehicle id="F171_0.8" depart="76.82">
        <route edges="171 8 104"/>
    </vehicle>
    <vehicle id="F131_0.13" depart="77.86">
        <route edges="131 31 33 52 15 17 192"/>
    </vehicle>
    <vehicle id="F131_0.14" depart="78.56">
        <route edges="131 4 51 26 28 93 95 164"/>
    </vehicle>
    <vehicle id="F114_0.9" depart="78.74">
        <route edges="114 181"/>
    </vehicle>
    <vehicle id="F194_0.6" depart="80.25">
        <route edges="194 98 96 47 66 68 85 83 124"/>
    </vehicle>
    <vehicle id="F171_0.9" depart="80.26">
        <route edges="171 71 73 56 54 35 37 133"/>
    </vehicle>
    <vehicle id="F134_0.4" depart="81.63">
        <route edges="134 93 95 164"/>
    </vehicle>
    <vehicle id="F151_0.8" depart="81.70">
        <route edges="151 51 53 54 52 152"/>
    </vehicle>
    <vehicle id="F171_0.10" depart="82.19">
        <route edges="171 16 14 12 112"/>
    </vehicle>
    <vehicle id="F194_0.7" depart="82.92">
        <route edges="194 193"/>
    </vehicle>
    <vehicle id="F131_0.15" depart="83.60">
        <route edges="131 31 33 35 37 84 153"/>
    </vehicle>
    <vehicle id="F134_0.5" depart="85.99">
        <route edges="134 93 144"/>
    </vehicle>
    <vehicle id="F154_0.13" depart="88.28">
        <route edges="154 95 97 98 96 94 92 113"/>
    </vehicle>
    <vehicle id="F114_0.10" depart="89.60">
        <route edges="114 18 16 51 53 55 57 153"/>
    </vehicle>
    <vehicle id="F154_0.14" depart="89.94">
        <route edges="154 95 164"/>
    </vehicle>
    <vehicle id="F174_0.12" depart="90.75">
        <route edges="174 78 76 74 72 172"/>
    </vehicle>
    <vehicle id="F174_0.13" depart="91.14">
        <route edges="174 78 76 45 43 26 28 124"/>
    </vehicle>
    <vehicle id="F191_0.8" depart="93.28">
        <route edges="191 91 93 58 63 36 34 32 13 15 17 113"/>
    </vehicle>
    <vehicle id="F134_0.6" depart="94.50">
        <route edges="134 93 58 56 54 52 152"/>
    </vehicle>
    <vehicle id="F194_0.8" depart="94.84">
        <route edges="194 98 173"/>
    </vehicle>
    <vehicle id="F191_0.9" depart="96.01">
        <route edges="191 91 38 36 34 32 1 101"/>
    </vehicle>
    <vehicle id="F171_0.11" depart="96.69">
        <route edges="171 16 51 26 28 93 95 164"/>
    </vehicle>
    <vehicle id="F131_0.16" depart="98.13">
        <route edges="131 31 33 44 43 41 141"/>
    </vehicle>
    <vehicle id="F111_0.8" depart="99.64">
        <route edges="111 112"/>
    </vehicle>
    <vehicle id="F114_0.11" depart="100.63">
        <route edges="114 91 93 95 97 98 96 94 133"/>
    </vehicle>
    <vehicle id="F114_0.12" depart="100.72">
        <route edges="114 181"/>
    </vehicle>
    <vehicle id="F151_0.9" depart="101.67">
        <route edges="151 14 31 32 1 101"/>
    </vehicle>
    <vehicle id="F114_0.13" depart="103.20">
        <route edges="114 18 16 14 121"/>
    </vehicle>
    <vehicle id="F131_0.17" depart="104.50">
        <route edges="131 4 6 161"/>
    </vehicle>
    <vehicle id="F191_0.10" depart="106.81">
        <route edges="191 91 38 36 34 32 132"/>
    </vehicle>
    <vehicle id="F134_0.7" depart="107.79">
        <route edges="134 93 58 63 61 8 181"/>
    </vehicle>
    <vehicle id="F151_0.10" depart="107.83">
        <route edges="151 51 34 32 13 42 44 55 57 153"/>
    </vehicle>
    <vehicle id="F171_0.12" depart="108.52">
        <route edges="171 8 181"/>
    </vehicle>
    <vehicle id="F114_0.14" depart="108.63">
        <route edges="114 18 161"/>
    </vehicle>
    <vehicle id="F174_0.14" depart="109.66">
        <route edges="174 78 76 74 72 172"/>
    </vehicle>
    <vehicle id="F134_0.8" depart="110.49">
        <route edges="134 93 58 56 43 26 61 16 14 121"/>
    </vehicle>
    <vehicle id="F171_0.13" depart="111.34">
        <route edges="171 71 73 75 77 173"/>
    </vehicle>
    <vehicle id="F134_0.9" depart="112.62">
        <route edges="134 38 36 34 32 13 152"/>
    </vehicle>
    <vehicle id="F154_0.15" depart="113.34">
        <route edges="154 95 78 65 48 144"/>
    </vehicle>
    <vehicle id="F134_0.10" depart="114.32">
        <route edges="134 81 181"/>
    </vehicle>
    <vehicle id="F111_0.9" depart="115.58">
        <route edges="111 2 4 6 71 73 75 77 96 47 45 43 41 141"/>
    </vehicle>
    <vehicle id="F174_0.15" depart="115.91">
        <route edges="174 85 83 124"/>
    </vehicle>
    <vehicle id="F134_0.11" depart="115.96">
        <route edges="134 38 36 34 32 132"/>
    </vehicle>
    <vehicle id="F134_0.12" depart="116.10">
        <route edges="134 81 181"/>
    </vehicle>
    <vehicle id="F134_0.13" depart="116.59">
        <route edges="134 81 18 161"/>
    </vehicle>
    <vehicle id="F114_0.15" depart="117.27">
        <route edges="114 18 16 14 12 112"/>
    </vehicle>
    <vehicle id="F171_0.14" depart="121.78">
        <route edges="171 71 36 34 21 121"/>
    </vehicle>
    <vehicle id="F151_0.11" depart="122.15">
        <route edges="151 14 121"/>
    </vehicle>
    <vehicle id="F151_0.12" depart="125.46">
        <route edges="151 6 161"/>
    </vehicle>
    <vehicle id="F174_0.16" depart="126.31">
        <route edges="174 78 76 74 72 172"/>
    </vehicle>
    <vehicle id="F154_0.16" depart="126.77">
        <route edges="154 58 56 54 52 152"/>
    </vehicle>
    <vehicle id="F171_0.15" depart="127.99">
        <route edges="171 16 14 31 33 35 37 133"/>
    </vehicle>
    <vehicle id="F154_0.17" depart="128.25">
        <route edges="154 95 78 76 45 43 26 61 161"/>
    </vehicle>
    <vehicle id="F154_0.18" depart="128.54">
        <route edges="154 95 97 193"/>
    </vehicle>
    <vehicle id="F151_0.13" depart="128.73">
        <route edges="151 14 12 101"/>
    </vehicle>
    <vehicle id="F111_0.10" depart="130.01">
        <route edges="111 2 121"/>
    </vehicle>
    <vehicle id="F134_0.14" depart="131.87">
        <route edges="134 38 36 41 14 12 101"/>
    </vehicle>
    <vehicle id="F154_0.19" depart="132.74">
        <route edges="154 58 75 76 74 72 172"/>
    </vehicle>
    <vehicle id="F174_0.17" depart="134.00">
        <route edges="174 78 76 45 43 41 6 8 104"/>
    </vehicle>
    <vehicle id="F134_0.15" depart="134.18">
        <route edges="134 81 104"/>
    </vehicle>
    <vehicle id="F114_0.16" depart="134.92">
        <route edges="114 181"/>
    </vehicle>
    <vehicle id="F174_0.18" depart="135.19">
        <route edges="174 85 83 81 181"/>
    </vehicle>
    <vehicle id="F114_0.17" depart="135.72">
        <route edges="114 181"/>
    </vehicle>
    <vehicle id="F171_0.16" depart="136.13">
        <route edges="171 16 51 53 54 52 3 1 112"/>
    </vehicle>
    <vehicle id="F154_0.20" depart="136.95">
        <route edges="154 95 97 193"/>
    </vehicle>
    <vehicle id="F134_0.16" depart="138.09">
        <route edges="134 38 36 34 32 132"/>
    </vehicle>
    <vehicle id="F194_0.9" depart="139.18">
        <route edges="194 98 67 65 63 36 53 54 35 37 133"/>
    </vehicle>
    <vehicle id="F111_0.11" depart="140.59">
        <route edges="111 11 22 24 26 73 75 76 74 72 172"/>
    </vehicle>
    <vehicle id="F111_0.12" depart="142.38">
        <route edges="111 112"/>
    </vehicle>
    <vehicle id="F131_0.18" depart="142.39">
        <route edges="131 4 51 26 28 93 95 164"/>
    </vehicle>
    <vehicle id="F191_0.11" depart="142.95">
        <route edges="191 104"/>
    </vehicle>
    <vehicle id="F134_0.17" depart="143.83">
        <route edges="134 38 36 34 33 35 72 5 152"/>
    </vehicle>
    <vehicle id="F191_0.12" depart="145.27">
        <route edges="191 104"/>
    </vehicle>
    <vehicle id="F194_0.10" depart="145.40">
        <route edges="194 193"/>
    </vehicle>
    <vehicle id="F154_0.21" depart="147.41">
        <route edges="154 58 56 43 41 14 12 112"/>
    </vehicle>
    <vehicle id="F111_0.13" depart="147.90">
        <route edges="111 11 132"/>
    </vehicle>
    <vehicle id="F111_0.14" depart="150.13">
        <route edges="111 11 13 15 17 113"/>
    </vehicle>
    <vehicle id="F174_0.19" depart="150.95">
        <route edges="174 78 76 57 153"/>
    </vehicle>
    <vehicle id="F111_0.15" depart="151.18">
        <route edges="111 112"/>
    </vehicle>
    <vehicle id="F154_0.22" depart="151.45">
        <route edges="154 58 63 61 161"/>
    </vehicle>
    <vehicle id="F194_0.11" depart="151.67">
        <route edges="194 98 67 65 56 54 52 3 22 21 121"/>
    </vehicle>
    <vehicle id="F151_0.14" depart="151.70">
        <route edges="151 14 12 11 13 152"/>
    </vehicle>
    <vehicle id="F194_0.12" depart="152.18">
        <route edges="194 98 173"/>
    </vehicle>
    <vehicle id="F194_0.13" depart="152.63">
        <route edges="194 98 67 76 45 43 26 28 124"/>
    </vehicle>
    <vehicle id="F171_0.17" depart="155.65">
        <route edges="171 16 14 31 33 52 15 17 113"/>
    </vehicle>
    <vehicle id="F114_0.18" depart="156.05">
        <route edges="114 181"/>
    </vehicle>
    <vehicle id="F191_0.13" depart="156.93">
        <route edges="191 18 71 28 124"/>
    </vehicle>
    <vehicle id="F134_0.18" depart="158.33">
        <route edges="134 93 95 97 193"/>
    </vehicle>
    <vehicle id="F151_0.15" depart="158.69">
        <route edges="151 51 34 32 13 152"/>
    </vehicle>
    <vehicle id="F151_0.16" depart="161.49">
        <route edges="151 14 12 112"/>
    </vehicle>
    <vehicle id="F111_0.16" depart="162.06">
        <route edges="111 2 121"/>
    </vehicle>
    <vehicle id="F131_0.19" depart="163.02">
        <route edges="131 31 33 52 152"/>
    </vehicle>
    <vehicle id="F114_0.19" depart="164.19">
        <route edges="114 91 93 144"/>
    </vehicle>
    <vehicle id="F194_0.14" depart="166.28">
        <route edges="194 193"/>
    </vehicle>
    <vehicle id="F134_0.19" depart="167.02">
        <route edges="134 93 144"/>
    </vehicle>
    <vehicle id="F134_0.20" depart="167.10">
        <route edges="134 81 18 161"/>
    </vehicle>
    <vehicle id="F151_0.17" depart="167.24">
        <route edges="151 14 121"/>
    </vehicle>
    <vehicle id="F131_0.20" depart="168.77">
        <route edges="131 31 33 35 37 133"/>
    </vehicle>
    <vehicle id="F171_0.18" depart="169.47">
        <route edges="171 16 14 31 24 41 6 8 91 38 36 34 21 121"/>
    </vehicle>
    <vehicle id="F114_0.20" depart="169.75">
        <route edges="114 91 93 144"/>
    </vehicle>
    <vehicle id="F174_0.20" depart="169.75">
        <route edges="174 78 65 56 54 52 152"/>
    </vehicle>
    <vehicle id="F174_0.21" depart="171.13">
        <route edges="174 78 76 45 43 41 6 71 73 75 68 85 83 81 18 161"/>
    </vehicle>
    <vehicle id="F114_0.21" depart="171.81">
        <route edges="114 91 93 144"/>
    </vehicle>
    <vehicle id="F151_0.18" depart="171.82">
        <route edges="151 51 26 61 161"/>
    </vehicle>
    <vehicle id="F114_0.22" depart="173.47">
        <route edges="114 18 71 73 56 55 66 68 97 193"/>
    </vehicle>
    <vehicle id="F134_0.21" depart="173.50">
        <route edges="134 38 61 161"/>
    </vehicle>
    <vehicle id="F171_0.19" depart="173.70">
        <route edges="171 8 91 93 144"/>
    </vehicle>
    <vehicle id="F114_0.23" depart="174.43">
        <route edges="114 181"/>
    </vehicle>
    <vehicle id="F171_0.20" depart="176.20">
        <route edges="171 8 181"/>
    </vehicle>
    <vehicle id="F171_0.21" depart="177.73">
        <route edges="171 71 28 93 95 97 98 67 65 63 36 34 21 4 51 53 55 57 94 27 25 23 32 1 2 31 33 35 37 133"/>
    </vehicle>
    <vehicle id="F154_0.23" depart="179.52">
        <route edges="154 58 75 68 164"/>
    </vehicle>
    <vehicle id="F151_0.19" depart="179.74">
        <route edges="151 51 53 55 57 153"/>
    </vehicle>
    <vehicle id="F131_0.21" depart="179.79">
        <route edges="131 12 101"/>
    </vehicle>
    <vehicle id="F191_0.14" depart="180.55">
        <route edges="191 91 93 58 63 36 34 32 132"/>
    </vehicle>
    <vehicle id="F114_0.24" depart="181.36">
        <route edges="114 91 124"/>
    </vehicle>
    <vehicle id="F191_0.15" depart="181.72">
        <route edges="191 91 38 36 34 32 132"/>
    </vehicle>
    <vehicle id="F151_0.20" depart="182.59">
        <route edges="151 6 161"/>
    </vehicle>
    <vehicle id="F194_0.15" depart="184.98">
        <route edges="194 98 67 65 48 144"/>
    </vehicle>
    <vehicle id="F191_0.16" depart="186.01">
        <route edges="191 104"/>
    </vehicle>
    <vehicle id="F151_0.21" depart="186.02">
        <route edges="151 6 71 73 75 68 85 144"/>
    </vehicle>
    <vehicle id="F131_0.22" depart="186.56">
        <route edges="131 12 112"/>
    </vehicle>
    <vehicle id="F114_0.25" depart="187.48">
        <route edges="114 18 16 14 121"/>
    </vehicle>
    <vehicle id="F151_0.22" depart="188.13">
        <route edges="151 51 53 55 57 86 173"/>
    </vehicle>
    <vehicle id="F191_0.17" depart="189.35">
        <route edges="191 91 124"/>
    </vehicle>
    <vehicle id="F151_0.23" depart="189.95">
        <route edges="151 51 53 46 75 76 74 37 133"/>
    </vehicle>
    <vehicle id="F174_0.22" depart="190.04">
        <route edges="174 78 76 74 72 172"/>
    </vehicle>
    <vehicle id="F171_0.22" depart="190.33">
        <route edges="171 71 73 75 77 173"/>
    </vehicle>
    <vehicle id="F131_0.23" depart="190.34">
        <route edges="131 4 51 26 28 93 144"/>
    </vehicle>
    <vehicle id="F194_0.16" depart="193.70">
        <route edges="194 87 164"/>
    </vehicle>
    <vehicle id="F151_0.24" depart="194.48">
        <route edges="151 6 8 181"/>
    </vehicle>
    <vehicle id="F114_0.26" depart="196.41">
        <route edges="114 181"/>
    </vehicle>
    <vehicle id="F194_0.17" depart="196.88">
        <route edges="194 193"/>
    </vehicle>
    <vehicle id="F194_0.18" depart="198.31">
        <route edges="194 87 85 144"/>
    </vehicle>
    <vehicle id="F191_0.18" depart="199.05">
        <route edges="191 91 93 144"/>
    </vehicle>
    <vehicle id="F111_0.17" depart="200.66">
        <route edges="111 11 13 15 17 192"/>
    </vehicle>
    <vehicle id="F194_0.19" depart="200.88">
        <route edges="194 87 78 76 74 72 5 3 132"/>
    </vehicle>
    <vehicle id="F171_0.23" depart="201.67">
        <route edges="171 71 73 56 55 57 153"/>
    </vehicle>
    <vehicle id="F111_0.18" depart="203.31">
        <route edges="111 11 13 15 17 82 84 86 88 184"/>
    </vehicle>
    <vehicle id="F154_0.24" depart="205.47">
        <route edges="154 83 81 104"/>
    </vehicle>
    <vehicle id="F154_0.25" depart="205.50">
        <route edges="154 58 56 43 41 141"/>
    </vehicle>
    <vehicle id="F154_0.26" depart="207.34">
        <route edges="154 83 38 36 34 32 132"/>
    </vehicle>
    <vehicle id="F171_0.24" depart="207.55">
        <route edges="171 71 36 34 33 35 37 133"/>
    </vehicle>
    <vehicle id="F171_0.25" depart="207.72">
        <route edges="171 71 28 124"/>
    </vehicle>
    <vehicle id="F191_0.19" depart="209.51">
        <route edges="191 91 93 58 63 61 161"/>
    </vehicle>
    <vehicle id="F194_0.20" depart="209.77">
        <route edges="194 98 67 68 164"/>
    </vehicle>
    <vehicle id="F111_0.19" depart="210.17">
        <route edges="111 112"/>
    </vehicle>
    <vehicle id="F174_0.23" depart="211.05">
        <route edges="174 78 76 74 37 133"/>
    </vehicle>
    <vehicle id="F114_0.27" depart="211.30">
        <route edges="114 91 124"/>
    </vehicle>
    <vehicle id="F171_0.26" depart="212.57">
        <route edges="171 71 73 75 77 96 94 92 113"/>
    </vehicle>
    <vehicle id="F151_0.25" depart="213.14">
        <route edges="151 14 121"/>
    </vehicle>
    <vehicle id="F194_0.21" depart="213.67">
        <route edges="194 193"/>
    </vehicle>
    <vehicle id="F154_0.27" depart="214.16">
        <route edges="154 58 56 54 35 37 133"/>
    </vehicle>
    <vehicle id="F174_0.24" depart="214.47">
        <route edges="174 78 65 48 95 97 184"/>
    </vehicle>
    <vehicle id="F131_0.24" depart="216.11">
        <route edges="131 31 33 35 37 133"/>
    </vehicle>
    <vehicle id="F194_0.22" depart="217.67">
        <route edges="194 87 78 76 74 72 5 42 44 46 75 68 97 184"/>
    </vehicle>
    <vehicle id="F131_0.25" depart="217.73">
        <route edges="131 12 101"/>
    </vehicle>
    <vehicle id="F114_0.28" depart="218.29">
        <route edges="114 181"/>
    </vehicle>
    <vehicle id="F114_0.29" depart="219.63">
        <route edges="114 18 16 14 12 101"/>
    </vehicle>
    <vehicle id="F114_0.30" depart="220.63">
        <route edges="114 18 16 14 12 112"/>
    </vehicle>
    <vehicle id="F131_0.26" depart="221.44">
        <route edges="131 31 33 52 3 22 24 26 28 124"/>
    </vehicle>
    <vehicle id="F111_0.20" depart="222.91">
        <route edges="111 11 132"/>
    </vehicle>
    <vehicle id="F174_0.25" depart="225.54">
        <route edges="174 78 76 74 37 92 113"/>
    </vehicle>
    <vehicle id="F194_0.23" depart="226.67">
        <route edges="194 193"/>
    </vehicle>
    <vehicle id="F174_0.26" depart="227.12">
        <route edges="174 78 76 74 72 172"/>
    </vehicle>
    <vehicle id="F194_0.24" depart="227.39">
        <route edges="194 87 164"/>
    </vehicle>
    <vehicle id="F174_0.27" depart="228.28">
        <route edges="174 78 76 74 72 172"/>
    </vehicle>
    <vehicle id="F191_0.20" depart="230.32">
        <route edges="191 104"/>
    </vehicle>
    <vehicle id="F111_0.21" depart="230.40">
        <route edges="111 11 22 24 26 28 93 95 164"/>
    </vehicle>
    <vehicle id="F154_0.28" depart="230.51">
        <route edges="154 95 97 98 96 153"/>
    </vehicle>
    <vehicle id="F111_0.22" depart="231.09">
        <route edges="111 11 13 42 44 46 75 68 85 144"/>
    </vehicle>
    <vehicle id="F191_0.21" depart="232.18">
        <route edges="191 91 124"/>
    </vehicle>
    <vehicle id="F171_0.27" depart="233.82">
        <route edges="171 71 73 75 77 173"/>
    </vehicle>
    <vehicle id="F131_0.27" depart="233.84">
        <route edges="131 12 112"/>
    </vehicle>
    <vehicle id="F194_0.25" depart="234.49">
        <route edges="194 87 164"/>
    </vehicle>
    <vehicle id="F151_0.26" depart="234.93">
        <route edges="151 51 53 54 52 152"/>
    </vehicle>
    <vehicle id="F154_0.29" depart="235.07">
        <route edges="154 83 38 36 34 32 13 42 23 21 4 141"/>
    </vehicle>
    <vehicle id="F111_0.23" depart="235.12">
        <route edges="111 112"/>
    </vehicle>
    <vehicle id="F111_0.24" depart="235.24">
        <route edges="111 2 31 32 13 42 44 55 57 94 133"/>
    </vehicle>
    <vehicle id="F191_0.22" depart="235.89">
        <route edges="191 104"/>
    </vehicle>
    <vehicle id="F131_0.28" depart="235.96">
        <route edges="131 31 33 35 72 5 3 1 2 4 51 26 28 124"/>
    </vehicle>
    <vehicle id="F131_0.29" depart="238.38">
        <route edges="131 12 101"/>
    </vehicle>
    <vehicle id="F114_0.31" depart="238.57">
        <route edges="114 18 161"/>
    </vehicle>
    <vehicle id="F131_0.30" depart="238.75">
        <route edges="131 31 33 35 37 84 47 45 43 41 6 71 36 34 32 132"/>
    </vehicle>
    <vehicle id="F114_0.32" depart="238.84">
        <route edges="114 181"/>
    </vehicle>
    <vehicle id="F171_0.28" depart="238.94">
        <route edges="171 16 14 121"/>
    </vehicle>
    <vehicle id="F111_0.25" depart="239.99">
        <route edges="111 11 13 15 172"/>
    </vehicle>
    <vehicle id="F191_0.23" depart="241.11">
        <route edges="191 91 124"/>
    </vehicle>
    <vehicle id="F191_0.24" depart="242.38">
        <route edges="191 18 161"/>
    </vehicle>
    <vehicle id="F134_0.22" depart="243.60">
        <route edges="134 81 18 71 73 48 95 164"/>
    </vehicle>
    <vehicle id="F171_0.29" depart="243.98">
        <route edges="171 71 36 34 32 1 112"/>
    </vehicle>