<routes>
	<flow id="F111_0" from="111" begin="0" end="270" vehsPerHour="359"/>
	<flow id="F131_0" from="131" begin="0" end="270" vehsPerHour="444"/>
	<flow id="F151_0" from="151" begin="0" end="270" vehsPerHour="429"/>
	<flow id="F171_0" from="171" begin="0" end="270" vehsPerHour="418"/>
	<flow id="F191_0" from="191" begin="0" end="270" vehsPerHour="351"/>
	<flow id="F114_0" from="114" begin="0" end="270" vehsPerHour="464"/>
	<flow id="F134_0" from="134" begin="0" end="270" vehsPerHour="353"/>
	<flow id="F154_0" from="154" begin="0" end="270" vehsPerHour="425"/>
	<flow id="F174_0" from="174" begin="0" end="270" vehsPerHour="381"/>
	<flow id="F194_0" from="194" begin="0" end="270" vehsPerHour="370"/>
	<flow id="F111_1" from="111" begin="270" end="540" vehsPerHour="719"/>
	<flow id="F131_1" from="131" begin="270" end="540" vehsPerHour="889"/>
	<flow id="F151_1" from="151" begin="270" end="540" vehsPerHour="859"/>
	<flow id="F171_1" from="171" begin="270" end="540" vehsPerHour="837"/>
	<flow id="F191_1" from="191" begin="270" end="540" vehsPerHour="703"/>
	<flow id="F114_1" from="114" begin="270" end="540" vehsPerHour="928"/>
	<flow id="F134_1" from="134" begin="270" end="540" vehsPerHour="707"/>
	<flow id="F154_1" from="154" begin="270" end="540" vehsPerHour="851"/>
	<flow id="F174_1" from="174" begin="270" end="540" vehsPerHour="763"/>
	<flow id="F194_1" from="194" begin="270" end="540" vehsPerHour="740"/>
	<flow id="F111_2" from="111" begin="540" end="810" vehsPerHour="1079"/>
	<flow id="F131_2" from="131" begin="540" end="810" vehsPerHour="1334"/>
	<flow id="F151_2" from="151" begin="540" end="810" vehsPerHour="1289"/>
	<flow id="F171_2" from="171" begin="540" end="810" vehsPerHour="1255"/>
	<flow id="F191_2" from="191" begin="540" end="810" vehsPerHour="1055"/>
	<flow id="F114_2" from="114" begin="540" end="810" vehsPerHour="1392"/>
	<flow id="F134_2" from="134" begin="540" end="810" vehsPerHour="1060"/>
	<flow id="F154_2" from="154" begin="540" end="810" vehsPerHour="1277"/>
	<flow id="F174_2" from="174" begin="540" end="810" vehsPerHour="1145"/>
	<flow id="F194_2" from="194" begin="540" end="810" vehsPerHour="1110"/>
	<flow id="F111_3" from="111" begin="810" end="1080" vehsPerHour="719"/>
	<flow id="F131_3" from="131" begin="810" end="1080" vehsPerHour="889"/>
	<flow id="F151_3" from="151" begin="810" end="1080" vehsPerHour="859"/>
	<flow id="F171_3" from="171" begin="810" end="1080" vehsPerHour="837"/>
	<flow id="F191_3" from="191" begin="810" end="1080" vehsPerHour="703"/>
	<flow id="F114_3" from="114" begin="810" end="1080" vehsPerHour="928"/>
	<flow id="F134_3" from="134" begin="810" end="1080" vehsPerHour="707"/>
	<flow id="F154_3" from="154" begin="810" end="1080" vehsPerHour="851"/>
	<flow id="F174_3" from="174" begin="810" end="1080" vehsPerHour="763"/>
	<flow id="F194_3" from="194" begin="810" end="1080" vehsPerHour="740"/>
	<flow id="F111_4" from="111" begin="1080" end="1350" vehsPerHour="359"/>
	<flow id="F131_4" from="131" begin="1080" end="1350" vehsPerHour="444"/>
	<flow id="F151_4" from="151" begin="1080" end="1350" vehsPerHour="429"/>
	<flow id="F171_4" from="171" begin="1080" end="1350" vehsPerHour="418"/>
	<flow id="F191_4" from="191" begin="1080" end="1350" vehsPerHour="351"/>
	<flow id="F114_4" from="114" begin="1080" end="1350" vehsPerHour="464"/>
	<flow id="F134_4" from="134" begin="1080" end="1350" vehsPerHour="353"/>
	<flow id="F154_4" from="154" begin="1080" end="1350" vehsPerHour="425"/>
	<flow id="F174_4" from="174" begin="1080" end="1350" vehsPerHour="381"/>
	<flow id="F194_4" from="194" begin="1080" end="1350" vehsPerHour="370"/>
</routes>
