<?xml version="1.0" encoding="UTF-8"?>

<!-- generated on 2025-01-16 22:55:21 by Eclipse SUMO jtrrouter Version 1.18.0
<configuration xmlns:xsi="http://www.w3.org/2001/XMLSchema-instance" xsi:noNamespaceSchemaLocation="http://sumo.dlr.de/xsd/jtrrouterConfiguration.xsd">

    <input>
        <net-file value="network/GridBufferFull/GridBuffer.net.xml"/>
        <route-files value="network/GridBufferFull/Demands/DemandType1.flows.xml"/>
        <turn-ratio-files value="network/GridBufferFull/GridBuffer.turn.xml"/>
    </input>

    <output>
        <output-file value="network/GridBufferFull/Demands/DemandType1.trips.xml"/>
    </output>

    <processing>
        <randomize-flows value="true"/>
        <remove-loops value="true"/>
        <repair value="true"/>
        <max-edges-factor value="0.8"/>
        <accept-all-destinations value="true"/>
    </processing>

    <report>
        <no-step-log value="true"/>
    </report>

</configuration>
-->

<routes xmlns:xsi="http://www.w3.org/2001/XMLSchema-instance" xsi:noNamespaceSchemaLocation="http://sumo.dlr.de/xsd/routes_file.xsd">
    <vehicle id="F142_0.0" depart="0.56">
        <route edges="142 3 1 2 31 32 13 15 172"/>
    </vehicle>
    <vehicle id="F122_0.0" depart="0.79">
        <route edges="122 13 152"/>
    </vehicle>
    <vehicle id="F103_0.0" depart="0.81">
        <route edges="103 82 133"/>
    </vehicle>
    <vehicle id="F162_0.0" depart="1.15">
        <route edges="162 17 192"/>
    </vehicle>
    <vehicle id="F182_0.0" depart="1.27">
        <route edges="182 82 84 47 45 43 34 32 13 15 17 192"/>
    </vehicle>
    <vehicle id="F162_0.1" depart="1.83">
        <route edges="162 62 37 133"/>
    </vehicle>
    <vehicle id="F103_0.1" depart="2.01">
        <route edges="103 192"/>
    </vehicle>
    <vehicle id="F182_0.1" depart="2.36">
        <route edges="182 82 133"/>
    </vehicle>
    <vehicle id="F122_0.1" depart="2.59">
        <route edges="122 22 21 121"/>
    </vehicle>
    <vehicle id="F143_0.0" depart="2.83">
        <route edges="143 47 66 68 97 193"/>
    </vehicle>
    <vehicle id="F122_0.2" depart="3.52">
        <route edges="122 13 15 17 113"/>
    </vehicle>
    <vehicle id="F142_0.1" depart="3.84">
        <route edges="142 42 23 21 121"/>
    </vehicle>
    <vehicle id="F103_0.2" depart="5.49">
        <route edges="103 82 133"/>
    </vehicle>
    <vehicle id="F103_0.3" depart="5.97">
        <route edges="103 7 172"/>
    </vehicle>
    <vehicle id="F163_0.0" depart="6.14">
        <route edges="163 67 76 57 86 88 184"/>
    </vehicle>
    <vehicle id="F122_0.3" depart="6.36">
        <route edges="122 13 152"/>
    </vehicle>
    <vehicle id="F183_0.0" depart="6.49">
        <route edges="183 184"/>
    </vehicle>
    <vehicle id="F163_0.1" depart="7.28">
        <route edges="163 67 68 97 98 173"/>
    </vehicle>
    <vehicle id="F122_0.4" depart="7.38">
        <route edges="122 22 21 121"/>
    </vehicle>
    <vehicle id="F162_0.2" depart="7.90">
        <route edges="162 62 64 66 68 85 144"/>
    </vehicle>
    <vehicle id="F102_0.0" depart="7.91">
        <route edges="102 2 4 51 53 55 57 86 88 193"/>
    </vehicle>
    <vehicle id="F162_0.3" depart="8.26">
        <route edges="162 62 37 133"/>
    </vehicle>
    <vehicle id="F163_0.2" depart="8.55">
        <route edges="163 67 65 63 61 161"/>
    </vehicle>
    <vehicle id="F123_0.0" depart="8.81">
        <route edges="123 27 64 57 94 133"/>
    </vehicle>
    <vehicle id="F102_0.1" depart="9.74">
        <route edges="102 11 132"/>
    </vehicle>
    <vehicle id="F102_0.2" depart="10.31">
        <route edges="102 101"/>
    </vehicle>
    <vehicle id="F183_0.1" depart="11.04">
        <route edges="183 184"/>
    </vehicle>
    <vehicle id="F123_0.1" depart="11.12">
        <route edges="123 92 192"/>
    </vehicle>
    <vehicle id="F143_0.1" depart="11.27">
        <route edges="143 86 88 87 164"/>
    </vehicle>
    <vehicle id="F102_0.3" depart="12.79">
        <route edges="102 2 4 6 8 91 38 36 34 33 52 15 17 113"/>
    </vehicle>
    <vehicle id="F123_0.2" depart="12.82">
        <route edges="123 27 25 52 152"/>
    </vehicle>
    <vehicle id="F162_0.4" depart="12.90">
        <route edges="162 62 64 45 43 26 28 124"/>
    </vehicle>
    <vehicle id="F163_0.3" depart="12.93">
        <route edges="163 67 65 48 144"/>
    </vehicle>
    <vehicle id="F182_0.2" depart="13.05">
        <route edges="182 82 133"/>
    </vehicle>
    <vehicle id="F162_0.5" depart="13.17">
        <route edges="162 62 37 133"/>
    </vehicle>
    <vehicle id="F103_0.4" depart="13.28">
        <route edges="103 7 5 152"/>
    </vehicle>
    <vehicle id="F183_0.2" depart="13.41">
        <route edges="183 184"/>
    </vehicle>
    <vehicle id="F142_0.2" depart="13.56">
        <route edges="142 42 35 37 84 153"/>
    </vehicle>
    <vehicle id="F162_0.6" depart="14.02">
        <route edges="162 62 64 66 68 164"/>
    </vehicle>
    <vehicle id="F162_0.7" depart="15.72">
        <route edges="162 62 37 133"/>
    </vehicle>
    <vehicle id="F143_0.2" depart="15.87">
        <route edges="143 86 88 87 164"/>
    </vehicle>
    <vehicle id="F163_0.4" depart="16.08">
        <route edges="163 88 184"/>
    </vehicle>
    <vehicle id="F142_0.3" depart="16.72">
        <route edges="142 15 17 113"/>
    </vehicle>
    <vehicle id="F123_0.3" depart="17.00">
        <route edges="123 84 86 173"/>
    </vehicle>
    <vehicle id="F162_0.8" depart="17.50">
        <route edges="162 62 37 92 113"/>
    </vehicle>
    <vehicle id="F182_0.3" depart="17.81">
        <route edges="182 82 133"/>
    </vehicle>
    <vehicle id="F103_0.5" depart="17.83">
        <route edges="103 7 172"/>
    </vehicle>
    <vehicle id="F102_0.4" depart="18.01">
        <route edges="102 101"/>
    </vehicle>
    <vehicle id="F102_0.5" depart="18.13">
        <route edges="102 11 22 33 52 15 17 113"/>
    </vehicle>
    <vehicle id="F102_0.6" depart="18.39">
        <route edges="102 2 31 33 35 37 92 192"/>
    </vehicle>
    <vehicle id="F103_0.6" depart="18.68">
        <route edges="103 82 84 47 45 43 34 32 1 101"/>
    </vehicle>
    <vehicle id="F142_0.4" depart="18.68">
        <route edges="142 42 44 43 41 141"/>
    </vehicle>
    <vehicle id="F102_0.7" depart="19.60">
        <route edges="102 2 31 33 44 43 26 73 48 83 38 61 161"/>
    </vehicle>
    <vehicle id="F143_0.3" depart="19.73">
        <route edges="143 86 67 65 56 54 35 37 133"/>
    </vehicle>
    <vehicle id="F183_0.3" depart="19.75">
        <route edges="183 98 173"/>
    </vehicle>
    <vehicle id="F183_0.4" depart="19.92">
        <route edges="183 87 85 83 81 104"/>
    </vehicle>
    <vehicle id="F123_0.4" depart="20.27">
        <route edges="123 27 25 23 21 4 6 161"/>
    </vehicle>
    <vehicle id="F182_0.4" depart="20.75">
        <route edges="182 7 172"/>
    </vehicle>
    <vehicle id="F183_0.5" depart="22.32">
        <route edges="183 184"/>
    </vehicle>
    <vehicle id="F103_0.7" depart="22.32">
        <route edges="103 7 5 3 1 2 121"/>
    </vehicle>
    <vehicle id="F162_0.9" depart="22.71">
        <route edges="162 62 64 66 68 97 193"/>
    </vehicle>
    <vehicle id="F183_0.6" depart="22.82">
        <route edges="183 184"/>
    </vehicle>
    <vehicle id="F163_0.5" depart="23.03">
        <route edges="163 88 193"/>
    </vehicle>
    <vehicle id="F183_0.7" depart="23.75">
        <route edges="183 98 67 76 74 72 17 113"/>
    </vehicle>
    <vehicle id="F143_0.4" depart="24.92">
        <route edges="143 47 66 68 164"/>
    </vehicle>
    <vehicle id="F182_0.5" depart="25.24">
        <route edges="182 82 84 153"/>
    </vehicle>
    <vehicle id="F102_0.8" depart="25.67">
        <route edges="102 2 4 51 53 55 57 86 88 87 85 83 124"/>
    </vehicle>
    <vehicle id="F123_0.5" depart="25.79">
        <route edges="123 84 86 88 193"/>
    </vehicle>
    <vehicle id="F163_0.6" depart="26.48">
        <route edges="163 67 76 74 72 5 3 132"/>
    </vehicle>
    <vehicle id="F163_0.7" depart="26.51">
        <route edges="163 88 184"/>
    </vehicle>
    <vehicle id="F142_0.5" depart="26.67">
        <route edges="142 3 1 2 31 33 35 37 92 192"/>
    </vehicle>
    <vehicle id="F102_0.9" depart="27.36">
        <route edges="102 2 4 6 161"/>
    </vehicle>
    <vehicle id="F122_0.5" depart="27.48">
        <route edges="122 22 24 41 141"/>
    </vehicle>
    <vehicle id="F162_0.10" depart="28.69">
        <route edges="162 62 37 133"/>
    </vehicle>
    <vehicle id="F103_0.8" depart="28.96">
        <route edges="103 82 133"/>
    </vehicle>
    <vehicle id="F103_0.9" depart="29.77">
        <route edges="103 7 5 42 44 46 48 144"/>
    </vehicle>
    <vehicle id="F142_0.6" depart="30.86">
        <route edges="142 15 172"/>
    </vehicle>
    <vehicle id="F122_0.6" depart="31.30">
        <route edges="122 22 24 41 141"/>
    </vehicle>
    <vehicle id="F103_0.10" depart="31.40">
        <route edges="103 7 62 64 66 65 63 36 34 21 121"/>
    </vehicle>
    <vehicle id="F123_0.6" depart="31.69">
        <route edges="123 92 7 172"/>
    </vehicle>
    <vehicle id="F182_0.6" depart="31.80">
        <route edges="182 82 27 25 23 21 12 112"/>
    </vehicle>
    <vehicle id="F143_0.5" depart="32.34">
        <route edges="143 47 45 54 23 24 26 28 93 144"/>
    </vehicle>
    <vehicle id="F182_0.7" depart="32.78">
        <route edges="182 113"/>
    </vehicle>
    <vehicle id="F122_0.7" depart="32.80">
        <route edges="122 13 152"/>
    </vehicle>
    <vehicle id="F162_0.11" depart="33.22">
        <route edges="162 5 42 44 43 41 141"/>
    </vehicle>
    <vehicle id="F123_0.7" depart="33.49">
        <route edges="123 84 153"/>
    </vehicle>
    <vehicle id="F102_0.10" depart="33.65">
        <route edges="102 11 132"/>
    </vehicle>
    <vehicle id="F142_0.7" depart="34.69">
        <route edges="142 15 62 37 84 153"/>
    </vehicle>
    <vehicle id="F182_0.8" depart="34.87">
        <route edges="182 113"/>
    </vehicle>
    <vehicle id="F123_0.8" depart="35.81">
        <route edges="123 27 25 52 152"/>
    </vehicle>
    <vehicle id="F102_0.11" depart="35.86">
        <route edges="102 11 132"/>
    </vehicle>
    <vehicle id="F183_0.8" depart="36.08">
        <route edges="183 87 78 77 173"/>
    </vehicle>
    <vehicle id="F182_0.9" depart="36.47">
        <route edges="182 82 133"/>
    </vehicle>
    <vehicle id="F143_0.6" depart="36.69">
        <route edges="143 47 45 54 23 21 12 112"/>
    </vehicle>
    <vehicle id="F103_0.11" depart="36.86">
        <route edges="103 82 84 86 173"/>
    </vehicle>
    <vehicle id="F163_0.8" depart="37.11">
        <route edges="163 67 76 45 43 41 14 12 112"/>
    </vehicle>
    <vehicle id="F103_0.12" depart="37.12">
        <route edges="103 82 84 86 67 68 85 144"/>
    </vehicle>
    <vehicle id="F143_0.7" depart="37.27">
        <route edges="143 47 66 68 85 83 38 61 16 14 31 33 35 37 133"/>
    </vehicle>
    <vehicle id="F143_0.8" depart="37.50">
        <route edges="143 47 74 72 17 192"/>
    </vehicle>
    <vehicle id="F123_0.9" depart="37.66">
        <route edges="123 92 7 5 3 1 101"/>
    </vehicle>
    <vehicle id="F102_0.12" depart="37.69">
        <route edges="102 101"/>
    </vehicle>
    <vehicle id="F142_0.8" depart="38.04">
        <route edges="142 3 1 2 4 141"/>
    </vehicle>
    <vehicle id="F143_0.9" depart="38.82">
        <route edges="143 47 66 68 164"/>
    </vehicle>
    <vehicle id="F163_0.9" depart="39.02">
        <route edges="163 67 68 164"/>
    </vehicle>
    <vehicle id="F162_0.12" depart="39.03">
        <route edges="162 17 113"/>
    </vehicle>
    <vehicle id="F142_0.9" depart="39.05">
        <route edges="142 42 35 37 133"/>
    </vehicle>
    <vehicle id="F103_0.13" depart="39.30">
        <route edges="103 7 62 25 23 21 121"/>
    </vehicle>
    <vehicle id="F143_0.10" depart="39.43">
        <route edges="143 86 88 193"/>
    </vehicle>
    <vehicle id="F103_0.14" depart="39.70">
        <route edges="103 7 172"/>
    </vehicle>
    <vehicle id="F142_0.10" depart="39.99">
        <route edges="142 42 44 46 63 61 161"/>
    </vehicle>
    <vehicle id="F122_0.8" depart="40.24">
        <route edges="122 1 101"/>
    </vehicle>
    <vehicle id="F122_0.9" depart="41.55">
        <route edges="122 13 42 23 21 121"/>
    </vehicle>
    <vehicle id="F163_0.10" depart="41.63">
        <route edges="163 67 65 56 55 57 153"/>
    </vehicle>
    <vehicle id="F142_0.11" depart="42.16">
        <route edges="142 3 1 112"/>
    </vehicle>
    <vehicle id="F183_0.9" depart="43.83">
        <route edges="183 184"/>
    </vehicle>
    <vehicle id="F162_0.13" depart="44.03">
        <route edges="162 5 42 44 46 48 144"/>
    </vehicle>
    <vehicle id="F142_0.12" depart="47.01">
        <route edges="142 42 35 72 172"/>
    </vehicle>
    <vehicle id="F183_0.10" depart="47.14">
        <route edges="183 98 96 94 92 7 62 37 133"/>
    </vehicle>
    <vehicle id="F183_0.11" depart="47.28">
        <route edges="183 87 85 144"/>
    </vehicle>
    <vehicle id="F162_0.14" depart="47.80">
        <route edges="162 17 192"/>
    </vehicle>
    <vehicle id="F162_0.15" depart="47.94">
        <route edges="162 62 64 66 68 97 193"/>
    </vehicle>
    <vehicle id="F162_0.16" depart="49.13">
        <route edges="162 62 64 66 68 85 144"/>
    </vehicle>
    <vehicle id="F183_0.12" depart="49.15">
        <route edges="183 98 96 94 92 192"/>
    </vehicle>
    <vehicle id="F182_0.10" depart="49.87">
        <route edges="182 82 84 153"/>
    </vehicle>
    <vehicle id="F123_0.10" depart="49.98">
        <route edges="123 27 25 23 21 121"/>
    </vehicle>
    <vehicle id="F182_0.11" depart="50.60">
        <route edges="182 7 62 64 66 68 85 144"/>
    </vehicle>
    <vehicle id="F182_0.12" depart="50.62">
        <route edges="182 113"/>
    </vehicle>
    <vehicle id="F102_0.13" depart="52.36">
        <route edges="102 2 121"/>
    </vehicle>
    <vehicle id="F163_0.11" depart="52.47">
        <route edges="163 67 76 45 54 52 152"/>
    </vehicle>
    <vehicle id="F143_0.11" depart="53.23">
        <route edges="143 86 88 184"/>
    </vehicle>
    <vehicle id="F103_0.15" depart="53.48">
        <route edges="103 192"/>
    </vehicle>
    <vehicle id="F142_0.13" depart="54.34">
        <route edges="142 42 44 46 63 61 16 14 12 11 132"/>
    </vehicle>
    <vehicle id="F162_0.17" depart="54.70">
        <route edges="162 62 64 66 77 96 47 45 46 48 144"/>
    </vehicle>
    <vehicle id="F102_0.14" depart="55.65">
        <route edges="102 2 31 33 44 46 48 144"/>
    </vehicle>
    <vehicle id="F183_0.13" depart="56.11">
        <route edges="183 184"/>
    </vehicle>
    <vehicle id="F143_0.12" depart="57.01">
        <route edges="143 86 88 184"/>
    </vehicle>
    <vehicle id="F142_0.14" depart="57.27">
        <route edges="142 3 1 101"/>
    </vehicle>
    <vehicle id="F122_0.10" depart="57.85">
        <route edges="122 22 24 53 54 23 21 121"/>
    </vehicle>
    <vehicle id="F182_0.13" depart="58.18">
        <route edges="182 7 62 25 23 21 121"/>
    </vehicle>
    <vehicle id="F142_0.15" depart="59.09">
        <route edges="142 15 17 82 84 153"/>
    </vehicle>
    <vehicle id="F143_0.13" depart="59.78">
        <route edges="143 47 45 46 75 77 88 184"/>
    </vehicle>
    <vehicle id="F163_0.12" depart="59.96">
        <route edges="163 67 76 74 72 172"/>
    </vehicle>
    <vehicle id="F163_0.13" depart="62.24">
        <route edges="163 88 87 164"/>
    </vehicle>
    <vehicle id="F163_0.14" depart="62.25">
        <route edges="163 88 193"/>
    </vehicle>
    <vehicle id="F143_0.14" depart="62.79">
        <route edges="143 47 66 68 164"/>
    </vehicle>
    <vehicle id="F122_0.11" depart="63.58">
        <route edges="122 22 33 44 55 57 153"/>
    </vehicle>
    <vehicle id="F122_0.12" depart="63.62">
        <route edges="122 13 152"/>
    </vehicle>
    <vehicle id="F103_0.16" depart="63.69">
        <route edges="103 82 84 47 45 43 26 61 161"/>
    </vehicle>
    <vehicle id="F122_0.13" depart="63.70">
        <route edges="122 22 21 121"/>
    </vehicle>
    <vehicle id="F123_0.11" depart="64.79">
        <route edges="123 27 25 23 24 41 141"/>
    </vehicle>
    <vehicle id="F142_0.16" depart="65.06">
        <route edges="142 15 17 192"/>
    </vehicle>
    <vehicle id="F182_0.14" depart="65.72">
        <route edges="182 82 133"/>
    </vehicle>
    <vehicle id="F123_0.12" depart="67.40">
        <route edges="123 27 72 17 82 133"/>
    </vehicle>
    <vehicle id="F183_0.14" depart="67.41">
        <route edges="183 87 78 76 74 72 172"/>
    </vehicle>
    <vehicle id="F142_0.17" depart="67.68">
        <route edges="142 42 44 46 48 144"/>
    </vehicle>
    <vehicle id="F162_0.18" depart="67.81">
        <route edges="162 62 64 66 68 164"/>
    </vehicle>
    <vehicle id="F102_0.15" depart="68.48">
        <route edges="102 2 4 141"/>
    </vehicle>
    <vehicle id="F163_0.15" depart="68.77">
        <route edges="163 67 65 48 144"/>
    </vehicle>
    <vehicle id="F102_0.16" depart="69.48">
        <route edges="102 2 31 33 44 43 41 14 12 101"/>
    </vehicle>
    <vehicle id="F102_0.17" depart="69.49">
        <route edges="102 2 4 51 34 32 13 152"/>
    </vehicle>
    <vehicle id="F143_0.15" depart="70.32">
        <route edges="143 86 173"/>
    </vehicle>
    <vehicle id="F143_0.16" depart="70.55">
        <route edges="143 86 67 65 48 83 124"/>
    </vehicle>
    <vehicle id="F183_0.15" depart="70.57">
        <route edges="183 98 96 153"/>
    </vehicle>
    <vehicle id="F103_0.17" depart="71.51">
        <route edges="103 82 84 153"/>
    </vehicle>
    <vehicle id="F103_0.18" depart="71.71">
        <route edges="103 82 133"/>
    </vehicle>
    <vehicle id="F163_0.16" depart="71.73">
        <route edges="163 67 65 48 83 124"/>
    </vehicle>
    <vehicle id="F122_0.14" depart="72.60">
        <route edges="122 22 24 26 28 93 58 56 43 41 6 8 104"/>
    </vehicle>
    <vehicle id="F102_0.18" depart="72.68">
        <route edges="102 101"/>
    </vehicle>
    <vehicle id="F103_0.19" depart="73.30">
        <route edges="103 7 5 3 22 24 26 28 124"/>
    </vehicle>
    <vehicle id="F122_0.15" depart="73.66">
        <route edges="122 1 2 31 33 35 64 45 54 23 24 26 61 161"/>
    </vehicle>
    <vehicle id="F102_0.19" depart="75.18">
        <route edges="102 11 132"/>
    </vehicle>
    <vehicle id="F162_0.19" depart="75.74">
        <route edges="162 17 192"/>
    </vehicle>
    <vehicle id="F103_0.20" depart="76.12">
        <route edges="103 7 62 64 57 86 88 193"/>
    </vehicle>
    <vehicle id="F122_0.16" depart="76.82">
        <route edges="122 22 33 35 37 133"/>
    </vehicle>
    <vehicle id="F102_0.20" depart="77.86">
        <route edges="102 2 4 51 34 32 132"/>
    </vehicle>
    <vehicle id="F102_0.21" depart="78.56">
        <route edges="102 11 13 42 44 46 75 77 96 94 133"/>
    </vehicle>
    <vehicle id="F142_0.18" depart="78.74">
        <route edges="142 3 22 24 53 55 57 94 133"/>
    </vehicle>
    <vehicle id="F103_0.21" depart="79.71">
        <route edges="103 192"/>
    </vehicle>
    <vehicle id="F163_0.17" depart="79.84">
        <route edges="163 88 184"/>
    </vehicle>
    <vehicle id="F103_0.22" depart="79.88">
        <route edges="103 7 62 64 45 54 52 3 132"/>
    </vehicle>
    <vehicle id="F183_0.16" depart="80.09">
        <route edges="183 87 85 144"/>
    </vehicle>
    <vehicle id="F182_0.15" depart="80.25">
        <route edges="182 82 84 86 88 193"/>
    </vehicle>
    <vehicle id="F122_0.17" depart="80.26">
        <route edges="122 22 24 26 61 161"/>
    </vehicle>
    <vehicle id="F183_0.17" depart="80.36">
        <route edges="183 184"/>
    </vehicle>
    <vehicle id="F183_0.18" depart="81.34">
        <route edges="183 98 96 94 133"/>
    </vehicle>
    <vehicle id="F162_0.20" depart="81.63">
        <route edges="162 62 64 57 153"/>
    </vehicle>
    <vehicle id="F122_0.18" depart="81.70">
        <route edges="122 13 42 44 55 74 72 5 152"/>
    </vehicle>
    <vehicle id="F123_0.13" depart="82.09">
        <route edges="123 27 25 52 15 17 113"/>
    </vehicle>
    <vehicle id="F122_0.19" depart="82.19">
        <route edges="122 1 2 4 141"/>
    </vehicle>
    <vehicle id="F143_0.17" depart="82.31">
        <route edges="143 47 74 72 17 192"/>
    </vehicle>
    <vehicle id="F182_0.16" depart="82.92">
        <route edges="182 113"/>
    </vehicle>
    <vehicle id="F122_0.20" depart="83.60">
        <route edges="122 22 24 26 28 93 144"/>
    </vehicle>
    <vehicle id="F143_0.18" depart="85.50">
        <route edges="143 86 88 87 164"/>
    </vehicle>
    <vehicle id="F162_0.21" depart="85.99">
        <route edges="162 5 152"/>
    </vehicle>
    <vehicle id="F163_0.18" depart="86.70">
        <route edges="163 67 68 164"/>
    </vehicle>
    <vehicle id="F183_0.19" depart="87.28">
        <route edges="183 87 164"/>
    </vehicle>
    <vehicle id="F162_0.22" depart="88.28">
        <route edges="162 62 25 44 46 48 95 78 76 74 72 172"/>
    </vehicle>
    <vehicle id="F143_0.19" depart="88.45">
        <route edges="143 86 173"/>
    </vehicle>
    <vehicle id="F103_0.23" depart="88.60">
        <route edges="103 82 84 86 88 193"/>
    </vehicle>
    <vehicle id="F103_0.24" depart="88.91">
        <route edges="103 192"/>
    </vehicle>
    <vehicle id="F143_0.20" depart="89.10">
        <route edges="143 94 92 7 5 152"/>
    </vehicle>
    <vehicle id="F142_0.19" depart="89.60">
        <route edges="142 15 17 192"/>
    </vehicle>
    <vehicle id="F143_0.21" depart="89.84">
        <route edges="143 47 45 43 41 141"/>
    </vehicle>
    <vehicle id="F162_0.23" depart="89.94">
        <route edges="162 5 42 44 46 48 144"/>
    </vehicle>
    <vehicle id="F103_0.25" depart="90.47">
        <route edges="103 7 5 152"/>
    </vehicle>
    <vehicle id="F182_0.17" depart="90.75">
        <route edges="182 7 5 42 35 64 57 94 92 113"/>
    </vehicle>
    <vehicle id="F182_0.18" depart="91.14">
        <route edges="182 82 133"/>
    </vehicle>
    <vehicle id="F143_0.22" depart="91.15">
        <route edges="143 94 92 7 5 152"/>
    </vehicle>
    <vehicle id="F142_0.20" depart="93.28">
        <route edges="142 3 1 2 4 6 71 28 124"/>
    </vehicle>
    <vehicle id="F162_0.24" depart="94.50">
        <route edges="162 17 192"/>
    </vehicle>
    <vehicle id="F182_0.19" depart="94.84">
        <route edges="182 7 5 42 23 24 26 28 81 104"/>
    </vehicle>
    <vehicle id="F143_0.23" depart="95.87">
        <route edges="143 86 67 65 63 61 8 104"/>
    </vehicle>
    <vehicle id="F142_0.21" depart="96.01">
        <route edges="142 42 44 46 75 76 74 25 52 3 132"/>
    </vehicle>
    <vehicle id="F122_0.21" depart="96.69">
        <route edges="122 1 101"/>
    </vehicle>
    <vehicle id="F163_0.19" depart="96.78">
        <route edges="163 96 94 92 192"/>
    </vehicle>
    <vehicle id="F102_0.22" depart="98.13">
        <route edges="102 101"/>
    </vehicle>
    <vehicle id="F103_0.26" depart="98.26">
        <route edges="103 7 172"/>
    </vehicle>
    <vehicle id="F123_0.14" depart="99.13">
        <route edges="123 27 64 57 153"/>
    </vehicle>
    <vehicle id="F102_0.23" depart="99.64">
        <route edges="102 101"/>
    </vehicle>
    <vehicle id="F142_0.22" depart="100.63">
        <route edges="142 42 23 21 4 6 71 73 48 144"/>
    </vehicle>
    <vehicle id="F142_0.23" depart="100.72">
        <route edges="142 42 23 32 1 2 4 6 8 104"/>
    </vehicle>
    <vehicle id="F103_0.27" depart="101.43">
        <route edges="103 7 5 42 44 46 48 95 97 193"/>
    </vehicle>
    <vehicle id="F122_0.22" depart="101.67">
        <route edges="122 13 42 35 37 133"/>
    </vehicle>
    <vehicle id="F143_0.24" depart="102.72">
        <route edges="143 47 74 72 172"/>
    </vehicle>
    <vehicle id="F142_0.24" depart="103.20">
        <route edges="142 15 172"/>
    </vehicle>
    <vehicle id="F183_0.20" depart="104.24">
        <route edges="183 98 96 47 45 54 23 32 13 15 17 113"/>
    </vehicle>
    <vehicle id="F102_0.24" depart="104.50">
        <route edges="102 101"/>
    </vehicle>
    <vehicle id="F163_0.20" depart="104.75">
        <route edges="163 88 184"/>
    </vehicle>
    <vehicle id="F123_0.15" depart="105.67">
        <route edges="123 27 64 57 94 92 192"/>
    </vehicle>
    <vehicle id="F163_0.21" depart="106.03">
        <route edges="163 67 65 63 28 81 104"/>
    </vehicle>
    <vehicle id="F143_0.25" depart="106.34">
        <route edges="143 94 27 64 66 68 164"/>
    </vehicle>
    <vehicle id="F142_0.25" depart="106.81">
        <route edges="142 42 23 32 13 152"/>
    </vehicle>
    <vehicle id="F123_0.16" depart="106.83">
        <route edges="123 84 153"/>
    </vehicle>
    <vehicle id="F123_0.17" depart="106.97">
        <route edges="123 27 64 45 43 41 14 12 101"/>
    </vehicle>
    <vehicle id="F163_0.22" depart="107.53">
        <route edges="163 96 153"/>
    </vehicle>
    <vehicle id="F162_0.25" depart="107.79">
        <route edges="162 62 64 57 153"/>
    </vehicle>
    <vehicle id="F122_0.23" depart="107.83">
        <route edges="122 22 21 121"/>
    </vehicle>
    <vehicle id="F163_0.23" depart="108.11">
        <route edges="163 88 87 85 144"/>
    </vehicle>
    <vehicle id="F122_0.24" depart="108.52">
        <route edges="122 22 21 121"/>
    </vehicle>
    <vehicle id="F142_0.26" depart="108.63">
        <route edges="142 42 23 32 132"/>
    </vehicle>
    <vehicle id="F103_0.28" depart="109.44">
        <route edges="103 7 5 42 44 46 75 77 96 94 92 192"/>
    </vehicle>
    <vehicle id="F182_0.20" depart="109.66">
        <route edges="182 7 5 42 44 43 34 32 132"/>
    </vehicle>
    <vehicle id="F183_0.21" depart="110.10">
        <route edges="183 184"/>
    </vehicle>
    <vehicle id="F162_0.26" depart="110.49">
        <route edges="162 17 113"/>
    </vehicle>
    <vehicle id="F143_0.26" depart="111.25">
        <route edges="143 94 27 64 57 86 67 76 74 37 84 47 45 43 34 33 35 72 172"/>
    </vehicle>
    <vehicle id="F122_0.25" depart="111.34">
        <route edges="122 22 24 26 73 48 95 164"/>
    </vehicle>
    <vehicle id="F162_0.27" depart="112.62">
        <route edges="162 62 25 23 21 4 6 71 73 75 77 173"/>
    </vehicle>
    <vehicle id="F162_0.28" depart="113.34">
        <route edges="162 62 25 44 46 75 76 45 43 34 32 132"/>
    </vehicle>
    <vehicle id="F162_0.29" depart="114.32">
        <route edges="162 62 64 66 68 164"/>
    </vehicle>
    <vehicle id="F103_0.29" depart="114.52">
        <route edges="103 7 5 152"/>
    </vehicle>
    <vehicle id="F183_0.22" depart="114.60">
        <route edges="183 98 96 47 45 43 41 141"/>
    </vehicle>
    <vehicle id="F102_0.25" depart="115.58">
        <route edges="102 101"/>
    </vehicle>
    <vehicle id="F123_0.18" depart="115.67">
        <route edges="123 92 7 5 3 1 101"/>
    </vehicle>
    <vehicle id="F162_0.30" depart="115.91">
        <route edges="162 17 192"/>
    </vehicle>
    <vehicle id="F162_0.31" depart="115.96">
        <route edges="162 5 3 1 101"/>
    </vehicle>
    <vehicle id="F162_0.32" depart="116.10">
        <route edges="162 17 113"/>
    </vehicle>
    <vehicle id="F143_0.27" depart="116.27">
        <route edges="143 86 88 87 85 58 63 28 124"/>
    </vehicle>
    <vehicle id="F143_0.28" depart="116.57">
        <route edges="143 86 173"/>
    </vehicle>
    <vehicle id="F103_0.30" depart="116.57">
        <route edges="103 7 62 25 23 21 121"/>
    </vehicle>
    <vehicle id="F162_0.33" depart="116.59">
        <route edges="162 62 37 92 192"/>
    </vehicle>
    <vehicle id="F123_0.19" depart="117.04">
        <route edges="123 84 86 88 193"/>
    </vehicle>
    <vehicle id="F123_0.20" depart="117.16">
        <route edges="123 92 7 62 64 57 153"/>
    </vehicle>
    <vehicle id="F142_0.27" depart="117.27">
        <route edges="142 15 172"/>
    </vehicle>
    <vehicle id="F103_0.31" depart="119.54">
        <route edges="103 7 5 152"/>
    </vehicle>
    <vehicle id="F143_0.29" depart="120.41">
        <route edges="143 86 173"/>
    </vehicle>
    <vehicle id="F183_0.23" depart="120.51">
        <route edges="183 184"/>
    </vehicle>
    <vehicle id="F183_0.24" depart="120.52">
        <route edges="183 184"/>
    </vehicle>
    <vehicle id="F163_0.24" depart="120.89">
        <route edges="163 67 65 63 61 161"/>
    </vehicle>
    <vehicle id="F122_0.26" depart="121.78">
        <route edges="122 22 24 26 61 161"/>
    </vehicle>
    <vehicle id="F122_0.27" depart="122.15">
        <route edges="122 22 24 26 28 124"/>
    </vehicle>
    <vehicle id="F103_0.32" depart="124.47">
        <route edges="103 82 84 153"/>
    </vehicle>
    <vehicle id="F122_0.28" depart="125.46">
        <route edges="122 22 21 12 101"/>
    </vehicle>
    <vehicle id="F182_0.21" depart="126.31">
        <route edges="182 82 84 47 45 54 52 15 62 64 66 65 56 43 34 32 132"/>
    </vehicle>
    <vehicle id="F162_0.34" depart="126.77">
        <route edges="162 62 64 66 68 97 193"/>
    </vehicle>
    <vehicle id="F103_0.33" depart="127.17">
        <route edges="103 7 5 152"/>
    </vehicle>
    <vehicle id="F103_0.34" depart="127.75">
        <route edges="103 192"/>
    </vehicle>
    <vehicle id="F122_0.29" depart="127.99">
        <route edges="122 22 24 26 28 81 181"/>
    </vehicle>
    <vehicle id="F163_0.25" depart="128.09">
        <route edges="163 96 94 92 192"/>
    </vehicle>
    <vehicle id="F162_0.35" depart="128.25">
        <route edges="162 62 64 66 65 56 55 57 94 27 25 52 152"/>
    </vehicle>
    <vehicle id="F163_0.26" depart="128.45">
        <route edges="163 88 184"/>
    </vehicle>
    <vehicle id="F162_0.36" depart="128.54">
        <route edges="162 62 64 66 68 164"/>
    </vehicle>
    <vehicle id="F122_0.30" depart="128.73">
        <route edges="122 22 24 53 55 57 153"/>
    </vehicle>
    <vehicle id="F163_0.27" depart="129.03">