<routes>
	<flow id="F102_0" from="102" begin="0" end="270" vehsPerHour="719"/>
	<flow id="F122_0" from="122" begin="0" end="270" vehsPerHour="889"/>
	<flow id="F142_0" from="142" begin="0" end="270" vehsPerHour="859"/>
	<flow id="F162_0" from="162" begin="0" end="270" vehsPerHour="837"/>
	<flow id="F182_0" from="182" begin="0" end="270" vehsPerHour="703"/>
	<flow id="F103_0" from="103" begin="0" end="270" vehsPerHour="928"/>
	<flow id="F123_0" from="123" begin="0" end="270" vehsPerHour="707"/>
	<flow id="F143_0" from="143" begin="0" end="270" vehsPerHour="851"/>
	<flow id="F163_0" from="163" begin="0" end="270" vehsPerHour="763"/>
	<flow id="F183_0" from="183" begin="0" end="270" vehsPerHour="740"/>
	<flow id="F102_1" from="102" begin="270" end="540" vehsPerHour="1439"/>
	<flow id="F122_1" from="122" begin="270" end="540" vehsPerHour="1778"/>
	<flow id="F142_1" from="142" begin="270" end="540" vehsPerHour="1718"/>
	<flow id="F162_1" from="162" begin="270" end="540" vehsPerHour="1674"/>
	<flow id="F182_1" from="182" begin="270" end="540" vehsPerHour="1407"/>
	<flow id="F103_1" from="103" begin="270" end="540" vehsPerHour="1856"/>
	<flow id="F123_1" from="123" begin="270" end="540" vehsPerHour="1414"/>
	<flow id="F143_1" from="143" begin="270" end="540" vehsPerHour="1703"/>
	<flow id="F163_1" from="163" begin="270" end="540" vehsPerHour="1527"/>
	<flow id="F183_1" from="183" begin="270" end="540" vehsPerHour="1480"/>
	<flow id="F102_2" from="102" begin="540" end="810" vehsPerHour="2159"/>
	<flow id="F122_2" from="122" begin="540" end="810" vehsPerHour="2668"/>
	<flow id="F142_2" from="142" begin="540" end="810" vehsPerHour="2578"/>
	<flow id="F162_2" from="162" begin="540" end="810" vehsPerHour="2511"/>
	<flow id="F182_2" from="182" begin="540" end="810" vehsPerHour="2111"/>
	<flow id="F103_2" from="103" begin="540" end="810" vehsPerHour="2784"/>
	<flow id="F123_2" from="123" begin="540" end="810" vehsPerHour="2121"/>
	<flow id="F143_2" from="143" begin="540" end="810" vehsPerHour="2554"/>
	<flow id="F163_2" from="163" begin="540" end="810" vehsPerHour="2290"/>
	<flow id="F183_2" from="183" begin="540" end="810" vehsPerHour="2220"/>
	<flow id="F102_3" from="102" begin="810" end="1080" vehsPerHour="1439"/>
	<flow id="F122_3" from="122" begin="810" end="1080" vehsPerHour="1778"/>
	<flow id="F142_3" from="142" begin="810" end="1080" vehsPerHour="1718"/>
	<flow id="F162_3" from="162" begin="810" end="1080" vehsPerHour="1674"/>
	<flow id="F182_3" from="182" begin="810" end="1080" vehsPerHour="1407"/>
	<flow id="F103_3" from="103" begin="810" end="1080" vehsPerHour="1856"/>
	<flow id="F123_3" from="123" begin="810" end="1080" vehsPerHour="1414"/>
	<flow id="F143_3" from="143" begin="810" end="1080" vehsPerHour="1703"/>
	<flow id="F163_3" from="163" begin="810" end="1080" vehsPerHour="1527"/>
	<flow id="F183_3" from="183" begin="810" end="1080" vehsPerHour="1480"/>
	<flow id="F102_4" from="102" begin="1080" end="1350" vehsPerHour="719"/>
	<flow id="F122_4" from="122" begin="1080" end="1350" vehsPerHour="889"/>
	<flow id="F142_4" from="142" begin="1080" end="1350" vehsPerHour="859"/>
	<flow id="F162_4" from="162" begin="1080" end="1350" vehsPerHour="837"/>
	<flow id="F182_4" from="182" begin="1080" end="1350" vehsPerHour="703"/>
	<flow id="F103_4" from="103" begin="1080" end="1350" vehsPerHour="928"/>
	<flow id="F123_4" from="123" begin="1080" end="1350" vehsPerHour="707"/>
	<flow id="F143_4" from="143" begin="1080" end="1350" vehsPerHour="851"/>
	<flow id="F163_4" from="163" begin="1080" end="1350" vehsPerHour="763"/>
	<flow id="F183_4" from="183" begin="1080" end="1350" vehsPerHour="740"/>
</routes>
