<?xml version="1.0" encoding="UTF-8"?>

<!-- generated on 2025-01-16 22:55:22 by Eclipse SUMO jtrrouter Version 1.18.0
<configuration xmlns:xsi="http://www.w3.org/2001/XMLSchema-instance" xsi:noNamespaceSchemaLocation="http://sumo.dlr.de/xsd/jtrrouterConfiguration.xsd">

    <input>
        <net-file value="network/GridBufferFull/GridBuffer.net.xml"/>
        <route-files value="network/GridBufferFull/Demands/DemandType4.flows.xml"/>
        <turn-ratio-files value="network/GridBufferFull/GridBuffer.turn.xml"/>
    </input>

    <output>
        <output-file value="network/GridBufferFull/Demands/DemandType4.trips.xml"/>
    </output>

    <processing>
        <randomize-flows value="true"/>
        <remove-loops value="true"/>
        <repair value="true"/>
        <max-edges-factor value="0.8"/>
        <accept-all-destinations value="true"/>
    </processing>

    <report>
        <no-step-log value="true"/>
    </report>

</configuration>
-->

<routes xmlns:xsi="http://www.w3.org/2001/XMLSchema-instance" xsi:noNamespaceSchemaLocation="http://sumo.dlr.de/xsd/routes_file.xsd">
    <vehicle id="F51_0.0" depart="0.56">
        <route edges="51 34 21 121"/>
    </vehicle>
    <vehicle id="F31_0.0" depart="0.79">
        <route edges="31 33 35 37 133"/>
    </vehicle>
    <vehicle id="F31_0.1" depart="2.59">
        <route edges="31 33 35 37 133"/>
    </vehicle>
    <vehicle id="F78_0.0" depart="3.52">
        <route edges="68 164"/>
    </vehicle>
    <vehicle id="F71_0.0" depart="3.84">
        <route edges="71 28 93 95 97 193"/>
    </vehicle>
    <vehicle id="F31_0.2" depart="6.36">
        <route edges="31 33 35 37 84 86 67 68 164"/>
    </vehicle>
    <vehicle id="F78_0.1" depart="7.38">
        <route edges="78 76 74 72 17 82 84 153"/>
    </vehicle>
    <vehicle id="F38_0.0" depart="7.91">
        <route edges="91 93 95 164"/>
    </vehicle>
    <vehicle id="F38_0.1" depart="9.74">
        <route edges="91 93 95 78 77 173"/>
    </vehicle>
    <vehicle id="F58_0.0" depart="10.31">
        <route edges="58 63 36 53 46 75 77 96 153"/>
    </vehicle>
    <vehicle id="F58_0.1" depart="12.79">
        <route edges="58 56 54 52 3 1 101"/>
    </vehicle>
    <vehicle id="F51_0.1" depart="13.56">
        <route edges="51 26 28 93 95 97 98 67 68 164"/>
    </vehicle>
    <vehicle id="F71_0.1" depart="16.72">
        <route edges="71 36 41 141"/>
    </vehicle>
    <vehicle id="F58_0.2" depart="18.01">
        <route edges="58 56 54 23 24 26 61 161"/>
    </vehicle>
    <vehicle id="F58_0.3" depart="18.13">
        <route edges="58 56 54 52 152"/>
    </vehicle>
    <vehicle id="F38_0.2" depart="18.39">
        <route edges="38 36 41 6 161"/>
    </vehicle>
    <vehicle id="F51_0.2" depart="18.68">
        <route edges="51 26 73 56 54 35 37 92 192"/>
    </vehicle>
    <vehicle id="F58_0.4" depart="19.60">
        <route edges="58 56 54 52 15 172"/>
    </vehicle>
    <vehicle id="F58_0.5" depart="25.67">
        <route edges="58 56 54 52 15 17 192"/>
    </vehicle>
    <vehicle id="F58_0.6" depart="27.36">
        <route edges="58 56 43 41 141"/>
    </vehicle>
    <vehicle id="F31_0.3" depart="27.48">
        <route edges="31 33 35 64 57 94 27 25 52 152"/>
    </vehicle>
    <vehicle id="F71_0.2" depart="30.86">
        <route edges="71 73 75 76 74 37 133"/>
    </vehicle>
    <vehicle id="F78_0.2" depart="31.30">
        <route edges="78 65 63 61 161"/>
    </vehicle>
    <vehicle id="F78_0.3" depart="32.80">
        <route edges="78 76 74 72 17 192"/>
    </vehicle>
    <vehicle id="F58_0.7" depart="33.65">
        <route edges="58 56 55 66 68 164"/>
    </vehicle>
    <vehicle id="F58_0.8" depart="35.86">
        <route edges="58 56 54 35 37 133"/>
    </vehicle>
    <vehicle id="F38_0.3" depart="37.69">
        <route edges="38 73 75 77 96 94 92 7 62 64 57 86 67 76 45 54 23 21 12 112"/>
    </vehicle>
    <vehicle id="F71_0.3" depart="38.04">
        <route edges="71 36 34 32 13 15 172"/>
    </vehicle>
    <vehicle id="F51_0.3" depart="39.05">
        <route edges="51 34 32 13 152"/>
    </vehicle>
    <vehicle id="F71_0.4" depart="39.99">
        <route edges="71 73 75 76 74 25 23 32 132"/>
    </vehicle>
    <vehicle id="F51_0.4" depart="40.24">
        <route edges="51 53 55 66 77 173"/>
    </vehicle>
    <vehicle id="F78_0.4" depart="41.55">
        <route edges="78 76 74 72 172"/>
    </vehicle>
    <vehicle id="F51_0.5" depart="42.16">
        <route edges="51 53 55 57 94 92 192"/>
    </vehicle>
    <vehicle id="F71_0.5" depart="47.01">
        <route edges="71 73 75 76 74 37 133"/>
    </vehicle>
    <vehicle id="F38_0.4" depart="52.36">
        <route edges="38 73 75 76 57 86 88 184"/>
    </vehicle>
    <vehicle id="F71_0.6" depart="54.34">
        <route edges="71 28 93 95 78 77 88 184"/>
    </vehicle>
    <vehicle id="F38_0.5" depart="55.65">
        <route edges="38 36 34 32 1 2 31 33 52 15 62 64 66 68 97 193"/>
    </vehicle>
    <vehicle id="F31_0.4" depart="57.85">
        <route edges="31 24 41 141"/>
    </vehicle>
    <vehicle id="F31_0.5" depart="63.58">
        <route edges="31 33 35 37 84 153"/>
    </vehicle>
    <vehicle id="F31_0.6" depart="63.62">
        <route edges="31 33 35 37 133"/>
    </vehicle>
    <vehicle id="F31_0.7" depart="63.70">
        <route edges="31 33 35 37 133"/>
    </vehicle>
    <vehicle id="F71_0.7" depart="67.68">
        <route edges="71 73 48 95 97 98 96 94 92 192"/>
    </vehicle>
    <vehicle id="F38_0.6" depart="68.48">
        <route edges="38 36 34 32 13 152"/>
    </vehicle>
    <vehicle id="F58_0.9" depart="69.48">
        <route edges="58 63 61 161"/>
    </vehicle>
    <vehicle id="F58_0.10" depart="69.49">
        <route edges="58 75 68 164"/>
    </vehicle>
    <vehicle id="F78_0.5" depart="72.60">
        <route edges="78 76 74 72 172"/>
    </vehicle>
    <vehicle id="F58_0.11" depart="72.68">
        <route edges="58 56 43 41 141"/>
    </vehicle>
    <vehicle id="F31_0.8" depart="73.66">
        <route edges="31 33 35 37 133"/>
    </vehicle>
    <vehicle id="F38_0.7" depart="75.18">
        <route edges="38 73 75 77 96 153"/>
    </vehicle>
    <vehicle id="F51_0.6" depart="76.82">
        <route edges="51 53 55 57 86 88 184"/>
    </vehicle>
    <vehicle id="F58_0.12" depart="77.86">
        <route edges="58 56 55 74 72 172"/>
    </vehicle>
    <vehicle id="F58_0.13" depart="78.56">
        <route edges="58 56 54 52 152"/>
    </vehicle>
    <vehicle id="F71_0.8" depart="78.74">
        <route edges="71 28 81 104"/>
    </vehicle>
    <vehicle id="F51_0.7" depart="80.26">
        <route edges="51 53 55 57 153"/>
    </vehicle>
    <vehicle id="F78_0.6" depart="81.70">
        <route edges="78 76 74 72 17 113"/>
    </vehicle>
    <vehicle id="F31_0.9" depart="82.19">
        <route edges="31 24 26 73 75 77 173"/>
    </vehicle>
    <vehicle id="F78_0.7" depart="83.60">
        <route edges="78 76 74 72 172"/>
    </vehicle>
    <vehicle id="F71_0.9" depart="89.60">
        <route edges="71 73 75 76 57 94 133"/>
    </vehicle>
    <vehicle id="F51_0.8" depart="93.28">
        <route edges="51 53 46 48 95 97 98 173"/>
    </vehicle>
    <vehicle id="F71_0.10" depart="96.01">
        <route edges="71 73 75 77 96 47 74 72 172"/>
    </vehicle>
    <vehicle id="F31_0.10" depart="96.69">
        <route edges="31 33 44 46 48 144"/>
    </vehicle>
    <vehicle id="F58_0.14" depart="98.13">
        <route edges="58 56 54 35 37 92 113"/>
    </vehicle>
    <vehicle id="F38_0.8" depart="99.64">
        <route edges="91 93 95 164"/>
    </vehicle>
    <vehicle id="F71_0.11" depart="100.63">
        <route edges="71 28 124"/>
    </vehicle>
    <vehicle id="F71_0.12" depart="100.72">
        <route edges="71 36 34 32 132"/>
    </vehicle>
    <vehicle id="F78_0.8" depart="101.67">
        <route edges="78 77 173"/>
    </vehicle>
    <vehicle id="F58_0.15" depart="104.50">
        <route edges="58 56 54 35 37 92 113"/>
    </vehicle>
    <vehicle id="F51_0.9" depart="106.81">
        <route edges="51 53 54 23 32 1 112"/>
    </vehicle>
    <vehicle id="F78_0.9" depart="107.83">
        <route edges="78 76 45 43 26 28 81 181"/>
    </vehicle>
    <vehicle id="F31_0.11" depart="108.52">
        <route edges="31 33 35 72 17 192"/>
    </vehicle>
    <vehicle id="F31_0.12" depart="111.34">
        <route edges="31 33 35 37 84 86 173"/>
    </vehicle>
    <vehicle id="F38_0.9" depart="115.58">
        <route edges="38 36 41 141"/>
    </vehicle>
    <vehicle id="F31_0.13" depart="121.78">
        <route edges="31 33 52 152"/>
    </vehicle>
    <vehicle id="F78_0.10" depart="122.15">
        <route edges="78 76 74 72 5 3 1 112"/>
    </vehicle>
    <vehicle id="F78_0.11" depart="125.46">
        <route edges="78 76 74 37 133"/>
    </vehicle>
    <vehicle id="F51_0.10" depart="127.99">
        <route edges="51 53 54 52 3 1 101"/>
    </vehicle>
    <vehicle id="F78_0.12" depart="128.73">
        <route edges="78 76 74 72 17 113"/>
    </vehicle>
    <vehicle id="F38_0.10" depart="130.01">
        <route edges="38 61 8 104"/>
    </vehicle>
    <vehicle id="F71_0.13" depart="134.92">
        <route edges="71 73 75 77 173"/>
    </vehicle>
    <vehicle id="F31_0.14" depart="136.13">
        <route edges="31 33 35 72 172"/>
    </vehicle>
    <vehicle id="F38_0.11" depart="140.59">
        <route edges="38 73 48 144"/>
    </vehicle>
    <vehicle id="F38_0.12" depart="142.38">
        <route edges="38 61 161"/>
    </vehicle>
    <vehicle id="F58_0.16" depart="142.39">
        <route edges="48 144"/>
    </vehicle>
    <vehicle id="F51_0.11" depart="142.95">
        <route edges="51 53 55 57 86 88 184"/>
    </vehicle>
    <vehicle id="F71_0.14" depart="145.27">
        <route edges="71 36 34 21 4 141"/>
    </vehicle>
    <vehicle id="F38_0.13" depart="147.90">
        <route edges="38 36 34 32 1 101"/>
    </vehicle>
    <vehicle id="F38_0.14" depart="150.13">
        <route edges="38 36 34 32 132"/>
    </vehicle>
    <vehicle id="F38_0.15" depart="151.18">
        <route edges="38 36 34 32 132"/>
    </vehicle>
    <vehicle id="F78_0.13" depart="151.70">
        <route edges="78 76 57 153"/>
    </vehicle>
    <vehicle id="F31_0.15" depart="155.65">
        <route edges="21 12 101"/>
    </vehicle>
    <vehicle id="F71_0.15" depart="156.05">
        <route edges="71 73 48 144"/>
    </vehicle>
    <vehicle id="F51_0.12" depart="156.93">
        <route edges="4 6 71 73 75 76 57 94 92 113"/>
    </vehicle>
    <vehicle id="F78_0.14" depart="158.69">
        <route edges="78 76 74 37 92 7 5 3 1 2 121"/>
    </vehicle>
    <vehicle id="F31_0.16" depart="161.49">
        <route edges="31 33 35 64 66 68 164"/>
    </vehicle>
    <vehicle id="F38_0.16" depart="162.06">
        <route edges="38 36 34 32 132"/>
    </vehicle>
    <vehicle id="F58_0.17" depart="163.02">
        <route edges="58 63 28 124"/>
    </vehicle>
    <vehicle id="F71_0.16" depart="164.19">
        <route edges="71 73 48 144"/>
    </vehicle>
    <vehicle id="F78_0.15" depart="167.24">
        <route edges="78 77 173"/>
    </vehicle>
    <vehicle id="F58_0.18" depart="168.77">
        <route edges="58 63 61 8 181"/>
    </vehicle>
    <vehicle id="F31_0.17" depart="169.47">
        <route edges="31 24 26 73 48 144"/>
    </vehicle>
    <vehicle id="F71_0.17" depart="169.75">
        <route edges="71 73 75 68 97 193"/>
    </vehicle>
    <vehicle id="F78_0.16" depart="171.82">
        <route edges="78 76 45 43 41 6 8 104"/>
    </vehicle>
    <vehicle id="F71_0.18" depart="173.47">
        <route edges="71 36 34 21 121"/>
    </vehicle>
    <vehicle id="F31_0.18" depart="173.70">
        <route edges="31 33 35 64 45 54 52 152"/>
    </vehicle>
    <vehicle id="F71_0.19" depart="174.43">
        <route edges="71 73 56 55 57 153"/>
    </vehicle>
    <vehicle id="F31_0.19" depart="176.20">
        <route edges="31 33 35 37 133"/>
    </vehicle>
    <vehicle id="F51_0.13" depart="177.73">
        <route edges="51 53 46 48 144"/>
    </vehicle>
    <vehicle id="F78_0.17" depart="179.74">
        <route edges="78 76 74 72 5 42 44 43 41 141"/>
    </vehicle>
    <vehicle id="F58_0.19" depart="179.79">
        <route edges="58 56 54 52 15 17 113"/>
    </vehicle>
    <vehicle id="F51_0.14" depart="180.55">
        <route edges="4 6 8 104"/>
    </vehicle>
    <vehicle id="F51_0.15" depart="181.72">
        <route edges="51 26 28 93 95 97 193"/>
    </vehicle>
    <vehicle id="F78_0.18" depart="182.59">
        <route edges="78 76 74 72 172"/>
    </vehicle>
    <vehicle id="F51_0.16" depart="186.01">
        <route edges="51 53 55 74 72 17 82 84 86 88 184"/>
    </vehicle>
    <vehicle id="F31_0.20" depart="186.02">
        <route edges="31 32 132"/>
    </vehicle>
    <vehicle id="F58_0.20" depart="186.56">
        <route edges="58 56 54 52 15 62 64 66 65 63 61 16 14 12 11 13 152"/>
    </vehicle>
    <vehicle id="F71_0.20" depart="187.48">
        <route edges="71 73 48 95 97 193"/>
    </vehicle>
    <vehicle id="F78_0.19" depart="188.13">
        <route edges="78 76 74 72 172"/>
    </vehicle>
    <vehicle id="F51_0.17" depart="189.35">
        <route edges="51 26 28 93 58 56 54 52 152"/>
    </vehicle>
    <vehicle id="F78_0.20" depart="189.95">
        <route edges="78 77 96 94 92 192"/>
    </vehicle>
    <vehicle id="F51_0.18" depart="190.33">
        <route edges="51 26 28 93 95 97 193"/>
    </vehicle>
    <vehicle id="F58_0.21" depart="190.34">
        <route edges="58 75 77 173"/>
    </vehicle>
    <vehicle id="F31_0.21" depart="194.48">
        <route edges="31 32 132"/>
    </vehicle>
    <vehicle id="F71_0.21" depart="199.05">
        <route edges="71 73 75 68 164"/>
    </vehicle>
    <vehicle id="F58_0.22" depart="200.66">
        <route edges="58 56 54 23 21 121"/>
    </vehicle>
    <vehicle id="F31_0.22" depart="201.67">
        <route edges="31 33 44 43 34 32 132"/>
    </vehicle>
    <vehicle id="F38_0.17" depart="203.31">
        <route edges="38 36 34 32 13 15 17 82 27 25 23 21 4 141"/>
    </vehicle>
    <vehicle id="F51_0.19" depart="207.55">
        <route edges="51 53 55 57 94 92 7 5 152"/>
    </vehicle>
    <vehicle id="F31_0.23" depart="207.72">
        <route edges="31 33 44 46 63 61 161"/>
    </vehicle>
    <vehicle id="F71_0.22" depart="209.51">
        <route edges="71 28 124"/>
    </vehicle>
    <vehicle id="F38_0.18" depart="210.17">
        <route edges="83 124"/>
    </vehicle>
    <vehicle id="F71_0.23" depart="211.30">
        <route edges="71 28 124"/>
    </vehicle>
    <vehicle id="F51_0.20" depart="212.57">
        <route edges="51 53 54 23 21 12 112"/>
    </vehicle>
    <vehicle id="F31_0.24" depart="213.14">
        <route edges="31 24 26 73 75 76 57 153"/>
    </vehicle>
    <vehicle id="F58_0.23" depart="216.11">
        <route edges="58 56 54 52 152"/>
    </vehicle>
    <vehicle id="F78_0.21" depart="217.73">
        <route edges="78 77 96 94 92 7 62 37 133"/>
    </vehicle>
    <vehicle id="F71_0.24" depart="218.29">
        <route edges="71 73 75 76 45 46 48 83 81 104"/>
    </vehicle>
    <vehicle id="F71_0.25" depart="219.63">
        <route edges="71 73 75 77 173"/>
    </vehicle>
    <vehicle id="F71_0.26" depart="220.63">
        <route edges="71 73 56 54 23 32 132"/>
    </vehicle>
    <vehicle id="F58_0.24" depart="221.44">
        <route edges="58 75 77 173"/>
    </vehicle>
    <vehicle id="F38_0.19" depart="222.91">
        <route edges="38 61 161"/>
    </vehicle>
    <vehicle id="F71_0.27" depart="230.32">
        <route edges="71 36 34 32 1 101"/>
    </vehicle>
    <vehicle id="F38_0.20" depart="230.40">
        <route edges="38 36 34 33 44 55 57 86 173"/>
    </vehicle>
    <vehicle id="F38_0.21" depart="231.09">
        <route edges="38 36 34 21 12 112"/>
    </vehicle>
    <vehicle id="F51_0.21" depart="232.18">
        <route edges="51 26 73 75 77 88 87 78 65 63 61 161"/>
    </vehicle>
    <vehicle id="F31_0.25" depart="233.82">
        <route edges="14 12 112"/>
    </vehicle>
    <vehicle id="F58_0.25" depart="233.84">
        <route edges="48 83 38 36 34 32 132"/>
    </vehicle>
    <vehicle id="F78_0.22" depart="234.93">
        <route edges="78 76 45 43 34 21 4 6 8 104"/>
    </vehicle>
    <vehicle id="F38_0.22" depart="235.12">
        <route edges="38 36 34 32 13 152"/>
    </vehicle>
    <vehicle id="F38_0.23" depart="235.24">
        <route edges="38 36 34 32 132"/>
    </vehicle>
    <vehicle id="F51_0.22" depart="235.89">
        <route edges="51 26 28 93 95 164"/>
    </vehicle>
    <vehicle id="F58_0.26" depart="235.96">
        <route edges="58 56 54 52 3 1 112"/>
    </vehicle>
    <vehicle id="F58_0.27" depart="238.38">
        <route edges="48 83 81 104"/>
    </vehicle>
    <vehicle id="F78_0.23" depart="238.75">
        <route edges="78 76 74 72 172"/>
    </vehicle>
    <vehicle id="F51_0.23" depart="238.94">
        <route edges="51 53 55 74 72 17 113"/>
    </vehicle>
    <vehicle id="F38_0.24" depart="239.99">
        <route edges="91 93 95 164"/>
    </vehicle>
    <vehicle id="F71_0.28" depart="241.11">
        <route edges="71 28 93 58 75 68 85 144"/>
    </vehicle>
    <vehicle id="F71_0.29" depart="242.38">
        <route edges="71 28 124"/>
    </vehicle>
    <vehicle id="F31_0.26" depart="243.98">
        <route edges="31 33 44 46 48 144"/>
    </vehicle>
    <vehicle id="F38_0.25" depart="244.47">
        <route edges="38 61 161"/>
    </vehicle>
    <vehicle id="F51_0.24" depart="248.12">
        <route edges="51 26 28 93 144"/>
    </vehicle>
    <vehicle id="F78_0.24" depart="249.21">
        <route edges="78 77 173"/>
    </vehicle>
    <vehicle id="F78_0.25" depart="253.63">
        <route edges="78 76 74 37 92 192"/>
    </vehicle>
    <vehicle id="F31_0.27" depart="258.69">
        <route edges="31 32 132"/>
    </vehicle>
    <vehicle id="F58_0.28" depart="260.98">
        <route edges="58 75 76 74 37 84 86 88 184"/>
    </vehicle>
    <vehicle id="F78_0.26" depart="262.10">
        <route edges="78 76 74 72 17 113"/>
    </vehicle>
    <vehicle id="F71_0.30" depart="263.89">
        <route edges="71 73 48 144"/>
    </vehicle>
    <vehicle id="F78_0.27" depart="266.22">
        <route edges="78 77 173"/>
    </vehicle>
    <vehicle id="F31_0.28" depart="266.60">
        <route edges="14 12 101"/>
    </vehicle>
    <vehicle id="F78_0.28" depart="267.55">
        <route edges="78 76 74 72 172"/>
    </vehicle>
    <vehicle id="F58_0.29" depart="269.35">
        <route edges="58 56 54 52 3 1 112"/>
    </vehicle>
    <vehicle id="F71_1.0" depart="270.23">
        <route edges="71 73 75 68 85 144"/>
    </vehicle>
    <vehicle id="F51_1.0" depart="270.62">
        <route edges="51 53 55 57 94 92 113"/>
    </vehicle>
    <vehicle id="F31_1.0" depart="270.79">
        <route edges="31 33 35 37 133"/>
    </vehicle>
    <vehicle id="F51_0.25" depart="271.96">
        <route edges="16 14 12 112"/>
    </vehicle>
    <vehicle id="F71_1.1" depart="274.77">
        <route edges="61 8 104"/>
    </vehicle>
    <vehicle id="F58_1.0" depart="276.49">
        <route edges="58 56 54 35 37 92 192"/>
    </vehicle>
    <vehicle id="F71_1.2" depart="276.97">
        <route edges="71 73 75 77 173"/>
    </vehicle>
    <vehicle id="F38_1.0" depart="277.90">
        <route edges="38 73 56 54 35 64 57 153"/>
    </vehicle>
    <vehicle id="F71_1.3" depart="279.06">
        <route edges="71 73 48 83 81 181"/>
    </vehicle>
    <vehicle id="F31_1.1" depart="281.05">
        <route edges="31 33 35 37 84 86 88 87 78 65 56 55 66 68 164"/>
    </vehicle>
    <vehicle id="F31_1.2" depart="281.15">
        <route edges="31 32 132"/>
    </vehicle>
    <vehicle id="F58_1.1" depart="281.48">
        <route edges="58 56 43 41 6 71 73 75 77 96 153"/>
    </vehicle>
    <vehicle id="F31_1.3" depart="281.58">
        <route edges="31 33 52 152"/>
    </vehicle>
    <vehicle id="F78_1.0" depart="282.57">
        <route edges="78 77 88 184"/>
    </vehicle>
    <vehicle id="F58_1.2" depart="282.86">
        <route edges="58 75 68 164"/>
    </vehicle>
    <vehicle id="F78_1.1" depart="285.10">
        <route edges="78 76 74 72 5 42 23 32 132"/>
    </vehicle>
    <vehicle id="F38_1.1" depart="285.72">
        <route edges="38 73 75 77 88 184"/>
    </vehicle>
    <vehicle id="F31_1.4" depart="287.18">
        <route edges="31 33 44 46 63 61 8 104"/>
    </vehicle>
    <vehicle id="F58_1.3" depart="287.37">
        <route edges="58 56 54 35 37 92 7 62 25 23 32 1 101"/>
    </vehicle>
    <vehicle id="F38_1.2" depart="287.50">
        <route edges="38 36 53 55 74 72 5 42 35 37 133"/>
    </vehicle>
    <vehicle id="F71_1.4" depart="287.68">
        <route edges="71 73 48 144"/>
    </vehicle>
    <vehicle id="F58_1.4" depart="287.75">
        <route edges="58 56 43 41 6 161"/>
    </vehicle>
    <vehicle id="F78_1.2" depart="289.61">
        <route edges="78 76 74 72 17 192"/>
    </vehicle>
    <vehicle id="F71_1.5" depart="289.74">
        <route edges="71 28 93 58 56 54 52 15 172"/>
    </vehicle>
    <vehicle id="F58_1.5" depart="289.75">
        <route edges="58 63 61 16 14 12 101"/>
    </vehicle>
    <vehicle id="F78_1.3" depart="290.24">
        <route edges="95 164"/>
    </vehicle>
    <vehicle id="F51_1.1" depart="290.98">
        <route edges="51 53 55 57 94 27 25 23 21 121"/>
    </vehicle>
    <vehicle id="F78_1.4" depart="292.15">
        <route edges="78 76 45 46 75 77 96 94 133"/>
    </vehicle>
    <vehicle id="F38_1.3" depart="292.71">
        <route edges="38 73 75 77 173"/>
    </vehicle>
    <vehicle id="F78_1.5" depart="293.05">
        <route edges="78 65 48 144"/>
    </vehicle>
    <vehicle id="F71_1.6" depart="293.50">
        <route edges="71 73 48 83 38 36 34 32 132"/>
    </vehicle>
    <vehicle id="F58_1.6" depart="293.75">
        <route edges="58 56 54 23 21 121"/>
    </vehicle>
    <vehicle id="F71_1.7" depart="294.80">
        <route edges="71 73 48 144"/>
    </vehicle>
    <vehicle id="F78_1.6" depart="295.96">
        <route edges="68 164"/>
    </vehicle>
    <vehicle id="F38_1.4" depart="296.67">
        <route edges="38 73 56 55 66 68 85 144"/>
    </vehicle>
    <vehicle id="F38_1.5" depart="298.69">
        <route edges="38 36 34 33 52 152"/>
    </vehicle>
    <vehicle id="F31_1.5" depart="300.57">
        <route edges="31 33 35 37 133"/>
    </vehicle>
    <vehicle id="F58_1.7" depart="300.60">
        <route edges="58 56 54 35 72 17 192"/>
    </vehicle>
    <vehicle id="F71_1.8" depart="300.60">
        <route edges="61 8 104"/>
    </vehicle>
    <vehicle id="F51_1.2" depart="301.50">
        <route edges="51 53 55 66 77 173"/>
    </vehicle>
    <vehicle id="F71_1.9" depart="303.43">
        <route edges="71 73 48 95 97 193"/>
    </vehicle>
    <vehicle id="F71_1.10" depart="303.79">
        <route edges="71 28 124"/>
    </vehicle>
    <vehicle id="F58_1.8" depart="304.01">
        <route edges="58 75 77 96 94 133"/>
    </vehicle>
    <vehicle id="F38_1.6" depart="304.69">
        <route edges="38 36 34 32 132"/>
    </vehicle>
    <vehicle id="F78_1.7" depart="306.41">
        <route edges="78 76 74 25 44 43 26 61 8 104"/>
    </vehicle>
    <vehicle id="F71_1.11" depart="307.74">
        <route edges="71 73 48 144"/>
    </vehicle>
    <vehicle id="F51_1.3" depart="308.82">
        <route edges="41 141"/>
    </vehicle>
    <vehicle id="F58_1.9" depart="310.11">
        <route edges="58 56 55 57 153"/>
    </vehicle>
    <vehicle id="F58_1.10" depart="311.04">
        <route edges="58 56 55 57 153"/>
    </vehicle>
    <vehicle id="F58_1.11" depart="311.59">
        <route edges="58 56 54 52 152"/>
    </vehicle>
    <vehicle id="F78_1.8" depart="311.96">
        <route edges="87 85 144"/>
    </vehicle>
    <vehicle id="F78_1.9" depart="311.99">
        <route edges="78 77 173"/>
    </vehicle>
    <vehicle id="F31_1.6" depart="313.78">
        <route edges="31 33 35 37 133"/>
    </vehicle>
    <vehicle id="F51_1.4" depart="314.66">
        <route edges="51 53 46 48 144"/>
    </vehicle>
    <vehicle id="F51_1.5" depart="315.53">
        <route edges="51 26 61 161"/>
    </vehicle>
    <vehicle id="F71_1.12" depart="316.25">
        <route edges="71 73 75 77 173"/>
    </vehicle>
    <vehicle id="F58_1.12" depart="317.28">
        <route edges="58 56 55 57 86 173"/>
    </vehicle>
    <vehicle id="F58_1.13" depart="317.31">
        <route edges="58 75 76 74 72 172"/>
    </vehicle>
    <vehicle id="F38_1.7" depart="317.94">
        <route edges="38 36 41 14 31 32 132"/>
    </vehicle>
    <vehicle id="F58_1.14" depart="318.32">
        <route edges="58 56 54 35 64 45 43 41 14 12 101"/>
    </vehicle>
    <vehicle id="F78_1.10" depart="319.81">
        <route edges="78 77 173"/>
    </vehicle>
    <vehicle id="F71_1.13" depart="321.44">
        <route edges="71 73 75 76 57 86 173"/>
    </vehicle>
    <vehicle id="F78_1.11" depart="321.52">
        <route edges="78 76 74 72 5 3 22 21 121"/>
    </vehicle>
    <vehicle id="F58_1.15" depart="323.09">
        <route edges="93 95 78 76 74 72 172"/>
    </vehicle>
    <vehicle id="F51_1.6" depart="324.60">
        <route edges="51 53 55 74 72 5 3 1 101"/>
    </vehicle>
    <vehicle id="F58_1.16" depart="326.11">
        <route edges="58 75 77 173"/>
    </vehicle>
    <vehicle id="F38_1.8" depart="327.27">
        <route edges="38 36 34 33 35 37 133"/>
    </vehicle>
    <vehicle id="F78_1.12" depart="327.78">
        <route edges="78 77 173"/>
    </vehicle>
    <vehicle id="F71_1.14" depart="328.03">
        <route edges="71 73 56 55 57 94 92 192"/>
    </vehicle>
    <vehicle id="F31_1.7" depart="328.23">
        <route edges="31 33 52 3 1 101"/>
    </vehicle>
    <vehicle id="F71_1.15" depart="328.66">
        <route edges="71 73 75 77 88 193"/>
    </vehicle>
    <vehicle id="F38_1.9" depart="329.09">
        <route edges="38 36 34 33 35 72 17 82 133"/>
    </vehicle>
    <vehicle id="F31_1.8" depart="330.61">
        <route edges="2 4 51 53 55 74 72 5 152"/>
    </vehicle>
    <vehicle id="F51_1.7" depart="330.82">
        <route edges="51 53 55 74 37 133"/>
    </vehicle>
    <vehicle id="F31_1.9" depart="333.08">
        <route edges="31 24 26 28 81 181"/>
    </vehicle>
    <vehicle id="F51_1.8" depart="333.27">
        <route edges="16 141"/>
    </vehicle>
    <vehicle id="F31_1.10" depart="333.42">
        <route edges="31 33 35 37 133"/>
    </vehicle>
    <vehicle id="F71_1.16" depart="334.90">
        <route edges="71 73 75 68 97 98 67 65 63 28 124"/>
    </vehicle>
    <vehicle id="F38_1.10" depart="335.06">
        <route edges="38 61 161"/>
    </vehicle>
    <vehicle id="F78_1.13" depart="335.08">
        <route edges="78 76 74 37 133"/>
    </vehicle>
    <vehicle id="F31_1.11" depart="335.63">
        <route edges="31 32 132"/>
    </vehicle>
    <vehicle id="F71_1.17" depart="336.13">
        <route edges="71 73 75 77 173"/>
    </vehicle>
    <vehicle id="F31_1.12" depart="336.32">
        <route edges="31 33 35 37 84 153"/>
    </vehicle>
    <vehicle id="F58_1.17" depart="337.41">
        <route edges="58 56 55 57 153"/>
    </vehicle>
    <vehicle id="F31_1.13" depart="338.75">
        <route edges="31 32 132"/>
    </vehicle>
    <vehicle id="F78_1.14" depart="340.25">
        <route edges="78 76 57 94 92 192"/>
    </vehicle>
    <vehicle id="F78_1.15" depart="342.42">
        <route edges="78 76 74 72 5 42 44 46 48 144"/>
    </vehicle>
    <vehicle id="F78_1.16" depart="342.56">
        <route edges="78 65 63 61 161"/>
    </vehicle>
    <vehicle id="F58_1.18" depart="344.12">
        <route edges="58 56 54 35 37 133"/>
    </vehicle>
    <vehicle id="F71_1.18" depart="345.16">
        <route edges="71 28 124"/>
    </vehicle>
    <vehicle id="F38_1.11" depart="345.74">
        <route edges="38 36 34 32 132"/>
    </vehicle>
    <vehicle id="F31_1.14" depart="346.24">
        <route edges="31 33 35 64 66 77 173"/>
    </vehicle>
    <vehicle id="F51_1.9" depart="346.69">
        <route edges="51 53 55 57 94 92 113"/>
    </vehicle>
    <vehicle id="F78_1.17" depart="347.89">
        <route edges="78 76 45 43 34 32 132"/>
    </vehicle>
    <vehicle id="F31_1.15" depart="349.21">
        <route edges="2 4 141"/>
    </vehicle>
    <vehicle id="F71_1.19" depart="350.11">
        <route edges="71 73 75 76 45 43 34 32 13 152"/>
    </vehicle>
    <vehicle id="F58_1.19" depart="350.36">
        <route edges="58 63 61 161"/>
    </vehicle>
    <vehicle id="F78_1.18" depart="350.90">
        <route edges="78 76 74 37 84 153"/>
    </vehicle>
    <vehicle id="F51_1.10" depart="351.35">
        <route edges="51 26 28 93 58 56 54 52 3 22 33 35 37 92 7 62 25 23 32 132"/>
    </vehicle>
    <vehicle id="F38_1.12" depart="351.63">
        <route edges="38 73 56 43 41 141"/>
    </vehicle>
    <vehicle id="F58_1.20" depart="351.99">
        <route edges="58 63 28 81 181"/>
    </vehicle>
    <vehicle id="F78_1.19" depart="352.30">
        <route edges="78 76 74 37 92 192"/>
    </vehicle>
    <vehicle id="F51_1.11" depart="353.99">
        <route edges="51 53 55 57 153"/>
    </vehicle>
    <vehicle id="F58_1.21" depart="354.22">
        <route edges="58 56 54 35 72 172"/>
    </vehicle>
    <vehicle id="F71_1.20" depart="354.33">
        <route edges="71 73 56 55 57 94 92 192"/>
    </vehicle>
    <vehicle id="F58_1.22" depart="354.92">
        <route edges="58 56 43 41 141"/>
    </vehicle>
    <vehicle id="F51_1.12" depart="355.65">
        <route edges="51 26 61 161"/>
    </vehicle>
    <vehicle id="F38_1.13" depart="355.99">
        <route edges="38 36 34 32 132"/>
    </vehicle>
    <vehicle id="F78_1.20" depart="357.13">
        <route edges="78 76 57 153"/>
    </vehicle>
    <vehicle id="F58_1.23" depart="357.28">
        <route edges="58 75 77 173"/>
    </vehicle>
    <vehicle id="F78_1.21" depart="357.41">
        <route edges="78 76 74 72 172"/>
    </vehicle>
    <vehicle id="F31_1.16" depart="359.81">
        <route edges="31 32 132"/>
    </vehicle>