<routes>
	<flow id="F22_0" from="22" begin="0" end="270" vehsPerHour="577"/>
	<flow id="F42_0" from="42" begin="0" end="270" vehsPerHour="655"/>
	<flow id="F62_0" from="62" begin="0" end="270" vehsPerHour="641"/>
	<flow id="F27_0" from="27" begin="0" end="270" vehsPerHour="631"/>
	<flow id="F47_0" from="47" begin="0" end="270" vehsPerHour="569"/>
	<flow id="F67_0" from="67" begin="0" end="270" vehsPerHour="673"/>
	<flow id="F22_1" from="22" begin="270" end="540" vehsPerHour="1154"/>
	<flow id="F42_1" from="42" begin="270" end="540" vehsPerHour="1311"/>
	<flow id="F62_1" from="62" begin="270" end="540" vehsPerHour="1283"/>
	<flow id="F27_1" from="27" begin="270" end="540" vehsPerHour="1263"/>
	<flow id="F47_1" from="47" begin="270" end="540" vehsPerHour="1139"/>
	<flow id="F67_1" from="67" begin="270" end="540" vehsPerHour="1347"/>
	<flow id="F22_2" from="22" begin="540" end="810" vehsPerHour="1731"/>
	<flow id="F42_2" from="42" begin="540" end="810" vehsPerHour="1967"/>
	<flow id="F62_2" from="62" begin="540" end="810" vehsPerHour="1925"/>
	<flow id="F27_2" from="27" begin="540" end="810" vehsPerHour="1894"/>
	<flow id="F47_2" from="47" begin="540" end="810" vehsPerHour="1709"/>
	<flow id="F67_2" from="67" begin="540" end="810" vehsPerHour="2021"/>
	<flow id="F22_3" from="22" begin="810" end="1080" vehsPerHour="1154"/>
	<flow id="F42_3" from="42" begin="810" end="1080" vehsPerHour="1311"/>
	<flow id="F62_3" from="62" begin="810" end="1080" vehsPerHour="1283"/>
	<flow id="F27_3" from="27" begin="810" end="1080" vehsPerHour="1263"/>
	<flow id="F47_3" from="47" begin="810" end="1080" vehsPerHour="1139"/>
	<flow id="F67_3" from="67" begin="810" end="1080" vehsPerHour="1347"/>
	<flow id="F22_4" from="22" begin="1080" end="1350" vehsPerHour="577"/>
	<flow id="F42_4" from="42" begin="1080" end="1350" vehsPerHour="655"/>
	<flow id="F62_4" from="62" begin="1080" end="1350" vehsPerHour="641"/>
	<flow id="F27_4" from="27" begin="1080" end="1350" vehsPerHour="631"/>
	<flow id="F47_4" from="47" begin="1080" end="1350" vehsPerHour="569"/>
	<flow id="F67_4" from="67" begin="1080" end="1350" vehsPerHour="673"/>
</routes>
