<?xml version="1.0" encoding="UTF-8"?>

<!-- generated on 2022-05-17 11:12:51 by Eclipse SUMO netedit Version 1.10.0
<configuration xmlns:xsi="http://www.w3.org/2001/XMLSchema-instance" xsi:noNamespaceSchemaLocation="http://sumo.dlr.de/xsd/netconvertConfiguration.xsd">

    <input>
        <sumo-net-file value="D:\OneDrive%20-%20City%20University%20of%20Hong%20Kong\Research%20in%20CityU\Code\SUMO_MFD\Bilevel_Network_1.0\network\Bloomsbury\Bloomsbury3.net.xml"/>
    </input>

    <output>
        <output-file value="D:\OneDrive%20-%20City%20University%20of%20Hong%20Kong\Research%20in%20CityU\Code\SUMO_MFD\Bilevel_Network_1.0\network\Bloomsbury\Bloomsbury3.net.xml"/>
    </output>

    <processing>
        <geometry.min-radius.fix.railways value="false"/>
        <geometry.max-grade.fix value="false"/>
        <offset.disable-normalization value="true"/>
        <lefthand value="false"/>
    </processing>

    <junctions>
        <no-turnarounds value="true"/>
        <junctions.corner-detail value="5"/>
        <junctions.limit-turn-speed value="5.5"/>
        <rectangular-lane-cut value="false"/>
    </junctions>

    <pedestrian>
        <walkingareas value="false"/>
    </pedestrian>

    <report>
        <aggregate-warnings value="5"/>
    </report>

</configuration>
-->

<net version="1.9" junctionCornerDetail="5" limitTurnSpeed="5.50" xmlns:xsi="http://www.w3.org/2001/XMLSchema-instance" xsi:noNamespaceSchemaLocation="http://sumo.dlr.de/xsd/net_file.xsd">

    <location netOffset="0.00,0.00" convBoundary="0.00,0.00,2500.00,3500.00" origBoundary="0.00,0.00,2500.00,3500.00" projParameter="!"/>

    <edge id=":A1_0" function="internal">
        <lane id=":A1_0_0" index="0" speed="3.65" length="4.67" shape="0.00,501.60 -1.20,500.80 -1.60,500.00 -1.20,499.20 0.00,498.40"/>
    </edge>
    <edge id=":A3_0" function="internal">
        <lane id=":A3_0_0" index="0" speed="3.65" length="4.67" shape="0.00,1501.60 -1.20,1500.80 -1.60,1500.00 -1.20,1499.20 0.00,1498.40"/>
    </edge>
    <edge id=":A4_0" function="internal">
        <lane id=":A4_0_0" index="0" speed="3.65" length="4.67" shape="0.00,2001.60 -1.20,2000.80 -1.60,2000.00 -1.20,1999.20 0.00,1998.40"/>
    </edge>
    <edge id=":A5_0" function="internal">
        <lane id=":A5_0_0" index="0" speed="3.65" length="4.67" shape="0.00,2501.60 -1.20,2500.80 -1.60,2500.00 -1.20,2499.20 0.00,2498.40"/>
    </edge>
    <edge id=":A6_0" function="internal">
        <lane id=":A6_0_0" index="0" speed="3.65" length="4.67" shape="0.00,3001.60 -1.20,3000.80 -1.60,3000.00 -1.20,2999.20 0.00,2998.40"/>
    </edge>
    <edge id=":B0_0" function="internal">
        <lane id=":B0_0_0" index="0" speed="3.65" length="4.67" shape="498.40,0.00 499.20,-1.20 500.00,-1.60 500.80,-1.20 501.60,0.00"/>
    </edge>
    <edge id=":B1_0" function="internal">
        <lane id=":B1_0_0" index="0" speed="6.51" length="9.03" shape="492.00,513.60 491.65,511.15 490.60,509.40 488.85,508.35 486.40,508.00"/>
    </edge>
    <edge id=":B1_1" function="internal">
        <lane id=":B1_1_0" index="0" speed="13.89" length="27.20" shape="492.00,513.60 492.00,486.40"/>
        <lane id=":B1_1_1" index="1" speed="13.89" length="27.20" shape="495.20,513.60 495.20,486.40"/>
        <lane id=":B1_1_2" index="2" speed="13.89" length="27.20" shape="498.40,513.60 498.40,486.40"/>
    </edge>
    <edge id=":B1_4" function="internal">
        <lane id=":B1_4_0" index="0" speed="10.36" length="7.98" shape="498.40,513.60 499.35,506.95 500.00,505.87"/>
    </edge>
    <edge id=":B1_23" function="internal">
        <lane id=":B1_23_0" index="0" speed="10.36" length="16.53" shape="500.00,505.87 502.20,502.20 506.95,499.35 513.60,498.40"/>
    </edge>
    <edge id=":B1_5" function="internal">
        <lane id=":B1_5_0" index="0" speed="6.51" length="9.03" shape="513.60,508.00 511.15,508.35 509.40,509.40 508.35,511.15 508.00,513.60"/>
    </edge>
    <edge id=":B1_6" function="internal">
        <lane id=":B1_6_0" index="0" speed="13.89" length="27.20" shape="513.60,508.00 486.40,508.00"/>
        <lane id=":B1_6_1" index="1" speed="13.89" length="27.20" shape="513.60,504.80 486.40,504.80"/>
        <lane id=":B1_6_2" index="2" speed="13.89" length="27.20" shape="513.60,501.60 486.40,501.60"/>
    </edge>
    <edge id=":B1_9" function="internal">
        <lane id=":B1_9_0" index="0" speed="10.36" length="7.98" shape="513.60,501.60 506.95,500.65 505.87,500.00"/>
    </edge>
    <edge id=":B1_10" function="internal">
        <lane id=":B1_10_0" index="0" speed="3.65" length="2.34" shape="513.60,501.60 512.40,500.80 512.00,500.00"/>
    </edge>
    <edge id=":B1_24" function="internal">
        <lane id=":B1_24_0" index="0" speed="10.36" length="16.53" shape="505.87,500.00 502.20,497.80 499.35,493.05 498.40,486.40"/>
    </edge>
    <edge id=":B1_25" function="internal">
        <lane id=":B1_25_0" index="0" speed="3.65" length="2.34" shape="512.00,500.00 512.40,499.20 513.60,498.40"/>
    </edge>
    <edge id=":B1_11" function="internal">
        <lane id=":B1_11_0" index="0" speed="6.51" length="9.03" shape="508.00,486.40 508.35,488.85 509.40,490.60 511.15,491.65 513.60,492.00"/>
    </edge>
    <edge id=":B1_12" function="internal">
        <lane id=":B1_12_0" index="0" speed="13.89" length="27.20" shape="508.00,486.40 508.00,513.60"/>
        <lane id=":B1_12_1" index="1" speed="13.89" length="27.20" shape="504.80,486.40 504.80,513.60"/>
        <lane id=":B1_12_2" index="2" speed="13.89" length="27.20" shape="501.60,486.40 501.60,513.60"/>
    </edge>
    <edge id=":B1_15" function="internal">
        <lane id=":B1_15_0" index="0" speed="10.36" length="7.98" shape="501.60,486.40 500.65,493.05 500.00,494.13"/>
    </edge>
    <edge id=":B1_16" function="internal">
        <lane id=":B1_16_0" index="0" speed="3.65" length="2.34" shape="501.60,486.40 500.80,487.60 500.00,488.00"/>
    </edge>
    <edge id=":B1_26" function="internal">
        <lane id=":B1_26_0" index="0" speed="10.36" length="16.53" shape="500.00,494.13 497.80,497.80 493.05,500.65 486.40,501.60"/>
    </edge>
    <edge id=":B1_27" function="internal">
        <lane id=":B1_27_0" index="0" speed="3.65" length="2.34" shape="500.00,488.00 499.20,487.60 498.40,486.40"/>
    </edge>
    <edge id=":B1_17" function="internal">
        <lane id=":B1_17_0" index="0" speed="6.51" length="9.03" shape="486.40,492.00 488.85,491.65 490.60,490.60 491.65,488.85 492.00,486.40"/>
    </edge>
    <edge id=":B1_18" function="internal">
        <lane id=":B1_18_0" index="0" speed="13.89" length="27.20" shape="486.40,492.00 513.60,492.00"/>
        <lane id=":B1_18_1" index="1" speed="13.89" length="27.20" shape="486.40,495.20 513.60,495.20"/>
        <lane id=":B1_18_2" index="2" speed="13.89" length="27.20" shape="486.40,498.40 513.60,498.40"/>
    </edge>
    <edge id=":B1_21" function="internal">
        <lane id=":B1_21_0" index="0" speed="10.36" length="7.98" shape="486.40,498.40 493.05,499.35 494.13,500.00"/>
    </edge>
    <edge id=":B1_22" function="internal">
        <lane id=":B1_22_0" index="0" speed="3.65" length="2.34" shape="486.40,498.40 487.60,499.20 488.00,500.00"/>
    </edge>
    <edge id=":B1_28" function="internal">
        <lane id=":B1_28_0" index="0" speed="10.36" length="16.53" shape="494.13,500.00 497.80,502.20 500.65,506.95 501.60,513.60"/>
    </edge>
    <edge id=":B1_29" function="internal">
        <lane id=":B1_29_0" index="0" speed="3.65" length="2.34" shape="488.00,500.00 487.60,500.80 486.40,501.60"/>
    </edge>
    <edge id=":B3_0" function="internal">
        <lane id=":B3_0_0" index="0" speed="6.51" length="9.03" shape="492.00,1513.60 491.65,1511.15 490.60,1509.40 488.85,1508.35 486.40,1508.00"/>
    </edge>
    <edge id=":B3_1" function="internal">
        <lane id=":B3_1_0" index="0" speed="13.89" length="27.20" shape="492.00,1513.60 492.00,1486.40"/>
        <lane id=":B3_1_1" index="1" speed="13.89" length="27.20" shape="495.20,1513.60 495.20,1486.40"/>
        <lane id=":B3_1_2" index="2" speed="13.89" length="27.20" shape="498.40,1513.60 498.40,1486.40"/>
    </edge>
    <edge id=":B3_4" function="internal">
        <lane id=":B3_4_0" index="0" speed="10.36" length="7.98" shape="498.40,1513.60 499.35,1506.95 500.00,1505.87"/>
    </edge>
    <edge id=":B3_5" function="internal">
        <lane id=":B3_5_0" index="0" speed="3.65" length="2.34" shape="498.40,1513.60 499.20,1512.40 500.00,1512.00"/>
    </edge>
    <edge id=":B3_23" function="internal">
        <lane id=":B3_23_0" index="0" speed="10.36" length="16.53" shape="500.00,1505.87 502.20,1502.20 506.95,1499.35 513.60,1498.40"/>
    </edge>
    <edge id=":B3_24" function="internal">
        <lane id=":B3_24_0" index="0" speed="3.65" length="2.34" shape="500.00,1512.00 500.80,1512.40 501.60,1513.60"/>
    </edge>
    <edge id=":B3_6" function="internal">
        <lane id=":B3_6_0" index="0" speed="6.51" length="9.03" shape="513.60,1508.00 511.15,1508.35 509.40,1509.40 508.35,1511.15 508.00,1513.60"/>
    </edge>
    <edge id=":B3_7" function="internal">
        <lane id=":B3_7_0" index="0" speed="13.89" length="27.20" shape="513.60,1508.00 486.40,1508.00"/>
        <lane id=":B3_7_1" index="1" speed="13.89" length="27.20" shape="513.60,1504.80 486.40,1504.80"/>
        <lane id=":B3_7_2" index="2" speed="13.89" length="27.20" shape="513.60,1501.60 486.40,1501.60"/>
    </edge>
    <edge id=":B3_10" function="internal">
        <lane id=":B3_10_0" index="0" speed="10.36" length="7.98" shape="513.60,1501.60 506.95,1500.65 505.87,1500.00"/>
    </edge>
    <edge id=":B3_11" function="internal">
        <lane id=":B3_11_0" index="0" speed="3.65" length="2.34" shape="513.60,1501.60 512.40,1500.80 512.00,1500.00"/>
    </edge>
    <edge id=":B3_25" function="internal">
        <lane id=":B3_25_0" index="0" speed="10.36" length="16.53" shape="505.87,1500.00 502.20,1497.80 499.35,1493.05 498.40,1486.40"/>
    </edge>
    <edge id=":B3_26" function="internal">
        <lane id=":B3_26_0" index="0" speed="3.65" length="2.34" shape="512.00,1500.00 512.40,1499.20 513.60,1498.40"/>
    </edge>
    <edge id=":B3_12" function="internal">
        <lane id=":B3_12_0" index="0" speed="6.51" length="9.03" shape="508.00,1486.40 508.35,1488.85 509.40,1490.60 511.15,1491.65 513.60,1492.00"/>
    </edge>
    <edge id=":B3_13" function="internal">
        <lane id=":B3_13_0" index="0" speed="13.89" length="27.20" shape="508.00,1486.40 508.00,1513.60"/>
        <lane id=":B3_13_1" index="1" speed="13.89" length="27.20" shape="504.80,1486.40 504.80,1513.60"/>
        <lane id=":B3_13_2" index="2" speed="13.89" length="27.20" shape="501.60,1486.40 501.60,1513.60"/>
    </edge>
    <edge id=":B3_16" function="internal">
        <lane id=":B3_16_0" index="0" speed="10.36" length="7.98" shape="501.60,1486.40 500.65,1493.05 500.00,1494.13"/>
    </edge>
    <edge id=":B3_27" function="internal">
        <lane id=":B3_27_0" index="0" speed="10.36" length="16.53" shape="500.00,1494.13 497.80,1497.80 493.05,1500.65 486.40,1501.60"/>
    </edge>
    <edge id=":B3_17" function="internal">
        <lane id=":B3_17_0" index="0" speed="6.51" length="9.03" shape="486.40,1492.00 488.85,1491.65 490.60,1490.60 491.65,1488.85 492.00,1486.40"/>
    </edge>
    <edge id=":B3_18" function="internal">
        <lane id=":B3_18_0" index="0" speed="13.89" length="27.20" shape="486.40,1492.00 513.60,1492.00"/>
        <lane id=":B3_18_1" index="1" speed="13.89" length="27.20" shape="486.40,1495.20 513.60,1495.20"/>
        <lane id=":B3_18_2" index="2" speed="13.89" length="27.20" shape="486.40,1498.40 513.60,1498.40"/>
    </edge>
    <edge id=":B3_21" function="internal">
        <lane id=":B3_21_0" index="0" speed="10.36" length="7.98" shape="486.40,1498.40 493.05,1499.35 494.13,1500.00"/>
    </edge>
    <edge id=":B3_22" function="internal">
        <lane id=":B3_22_0" index="0" speed="3.65" length="2.34" shape="486.40,1498.40 487.60,1499.20 488.00,1500.00"/>
    </edge>
    <edge id=":B3_28" function="internal">
        <lane id=":B3_28_0" index="0" speed="10.36" length="16.53" shape="494.13,1500.00 497.80,1502.20 500.65,1506.95 501.60,1513.60"/>
    </edge>
    <edge id=":B3_29" function="internal">
        <lane id=":B3_29_0" index="0" speed="3.65" length="2.34" shape="488.00,1500.00 487.60,1500.80 486.40,1501.60"/>
    </edge>
    <edge id=":B4_0" function="internal">
        <lane id=":B4_0_0" index="0" speed="6.51" length="9.03" shape="492.00,2013.60 491.65,2011.15 490.60,2009.40 488.85,2008.35 486.40,2008.00"/>
    </edge>
    <edge id=":B4_1" function="internal">
        <lane id=":B4_1_0" index="0" speed="13.89" length="27.20" shape="492.00,2013.60 492.00,1986.40"/>
        <lane id=":B4_1_1" index="1" speed="13.89" length="27.20" shape="495.20,2013.60 495.20,1986.40"/>
        <lane id=":B4_1_2" index="2" speed="13.89" length="27.20" shape="498.40,2013.60 498.40,1986.40"/>
    </edge>
    <edge id=":B4_4" function="internal">
        <lane id=":B4_4_0" index="0" speed="10.36" length="7.98" shape="498.40,2013.60 499.35,2006.95 500.00,2005.87"/>
    </edge>
    <edge id=":B4_5" function="internal">
        <lane id=":B4_5_0" index="0" speed="3.65" length="2.34" shape="498.40,2013.60 499.20,2012.40 500.00,2012.00"/>
    </edge>
    <edge id=":B4_24" function="internal">
        <lane id=":B4_24_0" index="0" speed="10.36" length="16.53" shape="500.00,2005.87 502.20,2002.20 506.95,1999.35 513.60,1998.40"/>
    </edge>
    <edge id=":B4_25" function="internal">
        <lane id=":B4_25_0" index="0" speed="3.65" length="2.34" shape="500.00,2012.00 500.80,2012.40 501.60,2013.60"/>
    </edge>
    <edge id=":B4_6" function="internal">
        <lane id=":B4_6_0" index="0" speed="6.51" length="9.03" shape="513.60,2008.00 511.15,2008.35 509.40,2009.40 508.35,2011.15 508.00,2013.60"/>
    </edge>
    <edge id=":B4_7" function="internal">
        <lane id=":B4_7_0" index="0" speed="13.89" length="27.20" shape="513.60,2008.00 486.40,2008.00"/>
        <lane id=":B4_7_1" index="1" speed="13.89" length="27.20" shape="513.60,2004.80 486.40,2004.80"/>
        <lane id=":B4_7_2" index="2" speed="13.89" length="27.20" shape="513.60,2001.60 486.40,2001.60"/>
    </edge>
    <edge id=":B4_10" function="internal">
        <lane id=":B4_10_0" index="0" speed="10.36" length="7.98" shape="513.60,2001.60 506.95,2000.65 505.87,2000.00"/>
    </edge>
    <edge id=":B4_11" function="internal">
        <lane id=":B4_11_0" index="0" speed="3.65" length="2.34" shape="513.60,2001.60 512.40,2000.80 512.00,2000.00"/>
    </edge>
    <edge id=":B4_26" function="internal">
        <lane id=":B4_26_0" index="0" speed="10.36" length="16.53" shape="505.87,2000.00 502.20,1997.80 499.35,1993.05 498.40,1986.40"/>
    </edge>
    <edge id=":B4_27" function="internal">
        <lane id=":B4_27_0" index="0" speed="3.65" length="2.34" shape="512.00,2000.00 512.40,1999.20 513.60,1998.40"/>
    </edge>
    <edge id=":B4_12" function="internal">
        <lane id=":B4_12_0" index="0" speed="6.51" length="9.03" shape="508.00,1986.40 508.35,1988.85 509.40,1990.60 511.15,1991.65 513.60,1992.00"/>
    </edge>
    <edge id=":B4_13" function="internal">
        <lane id=":B4_13_0" index="0" speed="13.89" length="27.20" shape="508.00,1986.40 508.00,2013.60"/>
        <lane id=":B4_13_1" index="1" speed="13.89" length="27.20" shape="504.80,1986.40 504.80,2013.60"/>
        <lane id=":B4_13_2" index="2" speed="13.89" length="27.20" shape="501.60,1986.40 501.60,2013.60"/>
    </edge>
    <edge id=":B4_16" function="internal">
        <lane id=":B4_16_0" index="0" speed="10.36" length="7.98" shape="501.60,1986.40 500.65,1993.05 500.00,1994.13"/>
    </edge>
    <edge id=":B4_17" function="internal">
        <lane id=":B4_17_0" index="0" speed="3.65" length="2.34" shape="501.60,1986.40 500.80,1987.60 500.00,1988.00"/>
    </edge>
    <edge id=":B4_28" function="internal">
        <lane id=":B4_28_0" index="0" speed="10.36" length="16.53" shape="500.00,1994.13 497.80,1997.80 493.05,2000.65 486.40,2001.60"/>
    </edge>
    <edge id=":B4_29" function="internal">
        <lane id=":B4_29_0" index="0" speed="3.65" length="2.34" shape="500.00,1988.00 499.20,1987.60 498.40,1986.40"/>
    </edge>
    <edge id=":B4_18" function="internal">
        <lane id=":B4_18_0" index="0" speed="6.51" length="9.03" shape="486.40,1992.00 488.85,1991.65 490.60,1990.60 491.65,1988.85 492.00,1986.40"/>
    </edge>
    <edge id=":B4_19" function="internal">
        <lane id=":B4_19_0" index="0" speed="13.89" length="27.20" shape="486.40,1992.00 513.60,1992.00"/>
        <lane id=":B4_19_1" index="1" speed="13.89" length="27.20" shape="486.40,1995.20 513.60,1995.20"/>
        <lane id=":B4_19_2" index="2" speed="13.89" length="27.20" shape="486.40,1998.40 513.60,1998.40"/>
    </edge>
    <edge id=":B4_22" function="internal">
        <lane id=":B4_22_0" index="0" speed="10.36" length="7.98" shape="486.40,1998.40 493.05,1999.35 494.13,2000.00"/>
    </edge>
    <edge id=":B4_23" function="internal">
        <lane id=":B4_23_0" index="0" speed="3.65" length="2.34" shape="486.40,1998.40 487.60,1999.20 488.00,2000.00"/>
    </edge>
    <edge id=":B4_30" function="internal">
        <lane id=":B4_30_0" index="0" speed="10.36" length="16.53" shape="494.13,2000.00 497.80,2002.20 500.65,2006.95 501.60,2013.60"/>
    </edge>
    <edge id=":B4_31" function="internal">
        <lane id=":B4_31_0" index="0" speed="3.65" length="2.34" shape="488.00,2000.00 487.60,2000.80 486.40,2001.60"/>
    </edge>
    <edge id=":B5_0" function="internal">
        <lane id=":B5_0_0" index="0" speed="6.51" length="9.03" shape="492.00,2513.60 491.65,2511.15 490.60,2509.40 488.85,2508.35 486.40,2508.00"/>
    </edge>
    <edge id=":B5_1" function="internal">
        <lane id=":B5_1_0" index="0" speed="13.89" length="27.20" shape="492.00,2513.60 492.00,2486.40"/>
        <lane id=":B5_1_1" index="1" speed="13.89" length="27.20" shape="495.20,2513.60 495.20,2486.40"/>
        <lane id=":B5_1_2" index="2" speed="13.89" length="27.20" shape="498.40,2513.60 498.40,2486.40"/>
    </edge>
    <edge id=":B5_4" function="internal">
        <lane id=":B5_4_0" index="0" speed="10.36" length="7.98" shape="498.40,2513.60 499.35,2506.95 500.00,2505.87"/>
    </edge>
    <edge id=":B5_5" function="internal">
        <lane id=":B5_5_0" index="0" speed="3.65" length="2.34" shape="498.40,2513.60 499.20,2512.40 500.00,2512.00"/>
    </edge>
    <edge id=":B5_24" function="internal">
        <lane id=":B5_24_0" index="0" speed="10.36" length="16.53" shape="500.00,2505.87 502.20,2502.20 506.95,2499.35 513.60,2498.40"/>
    </edge>
    <edge id=":B5_25" function="internal">
        <lane id=":B5_25_0" index="0" speed="3.65" length="2.34" shape="500.00,2512.00 500.80,2512.40 501.60,2513.60"/>
    </edge>
    <edge id=":B5_6" function="internal">
        <lane id=":B5_6_0" index="0" speed="6.51" length="9.03" shape="513.60,2508.00 511.15,2508.35 509.40,2509.40 508.35,2511.15 508.00,2513.60"/>
    </edge>
    <edge id=":B5_7" function="internal">
        <lane id=":B5_7_0" index="0" speed="13.89" length="27.20" shape="513.60,2508.00 486.40,2508.00"/>
        <lane id=":B5_7_1" index="1" speed="13.89" length="27.20" shape="513.60,2504.80 486.40,2504.80"/>
        <lane id=":B5_7_2" index="2" speed="13.89" length="27.20" shape="513.60,2501.60 486.40,2501.60"/>
    </edge>
    <edge id=":B5_10" function="internal">
        <lane id=":B5_10_0" index="0" speed="10.36" length="7.98" shape="513.60,2501.60 506.95,2500.65 505.87,2500.00"/>
    </edge>
    <edge id=":B5_11" function="internal">
        <lane id=":B5_11_0" index="0" speed="3.65" length="2.34" shape="513.60,2501.60 512.40,2500.80 512.00,2500.00"/>
    </edge>
    <edge id=":B5_26" function="internal">
        <lane id=":B5_26_0" index="0" speed="10.36" length="16.53" shape="505.87,2500.00 502.20,2497.80 499.35,2493.05 498.40,2486.40"/>
    </edge>
    <edge id=":B5_27" function="internal">
        <lane id=":B5_27_0" index="0" speed="3.65" length="2.34" shape="512.00,2500.00 512.40,2499.20 513.60,2498.40"/>
    </edge>
    <edge id=":B5_12" function="internal">
        <lane id=":B5_12_0" index="0" speed="6.51" length="9.03" shape="508.00,2486.40 508.35,2488.85 509.40,2490.60 511.15,2491.65 513.60,2492.00"/>
    </edge>
    <edge id=":B5_13" function="internal">
        <lane id=":B5_13_0" index="0" speed="13.89" length="27.20" shape="508.00,2486.40 508.00,2513.60"/>
        <lane id=":B5_13_1" index="1" speed="13.89" length="27.20" shape="504.80,2486.40 504.80,2513.60"/>
        <lane id=":B5_13_2" index="2" speed="13.89" length="27.20" shape="501.60,2486.40 501.60,2513.60"/>
    </edge>
    <edge id=":B5_16" function="internal">
        <lane id=":B5_16_0" index="0" speed="10.36" length="7.98" shape="501.60,2486.40 500.65,2493.05 500.00,2494.13"/>
    </edge>
    <edge id=":B5_17" function="internal">
        <lane id=":B5_17_0" index="0" speed="3.65" length="2.34" shape="501.60,2486.40 500.80,2487.60 500.00,2488.00"/>
    </edge>
    <edge id=":B5_28" function="internal">
        <lane id=":B5_28_0" index="0" speed="10.36" length="16.53" shape="500.00,2494.13 497.80,2497.80 493.05,2500.65 486.40,2501.60"/>
    </edge>
    <edge id=":B5_29" function="internal">
        <lane id=":B5_29_0" index="0" speed="3.65" length="2.34" shape="500.00,2488.00 499.20,2487.60 498.40,2486.40"/>
    </edge>
    <edge id=":B5_18" function="internal">
        <lane id=":B5_18_0" index="0" speed="6.51" length="9.03" shape="486.40,2492.00 488.85,2491.65 490.60,2490.60 491.65,2488.85 492.00,2486.40"/>
    </edge>
    <edge id=":B5_19" function="internal">
        <lane id=":B5_19_0" index="0" speed="13.89" length="27.20" shape="486.40,2492.00 513.60,2492.00"/>
        <lane id=":B5_19_1" index="1" speed="13.89" length="27.20" shape="486.40,2495.20 513.60,2495.20"/>
        <lane id=":B5_19_2" index="2" speed="13.89" length="27.20" shape="486.40,2498.40 513.60,2498.40"/>
    </edge>
    <edge id=":B5_22" function="internal">
        <lane id=":B5_22_0" index="0" speed="10.36" length="7.98" shape="486.40,2498.40 493.05,2499.35 494.13,2500.00"/>
    </edge>
    <edge id=":B5_23" function="internal">
        <lane id=":B5_23_0" index="0" speed="3.65" length="2.34" shape="486.40,2498.40 487.60,2499.20 488.00,2500.00"/>
    </edge>
    <edge id=":B5_30" function="internal">
        <lane id=":B5_30_0" index="0" speed="10.36" length="16.53" shape="494.13,2500.00 497.80,2502.20 500.65,2506.95 501.60,2513.60"/>
    </edge>
    <edge id=":B5_31" function="internal">
        <lane id=":B5_31_0" index="0" speed="3.65" length="2.34" shape="488.00,2500.00 487.60,2500.80 486.40,2501.60"/>
    </edge>
    <edge id=":B6_0" function="internal">
        <lane id=":B6_0_0" index="0" speed="6.51" length="9.03" shape="492.00,3013.60 491.65,3011.15 490.60,3009.40 488.85,3008.35 486.40,3008.00"/>
    </edge>
    <edge id=":B6_1" function="internal">
        <lane id=":B6_1_0" index="0" speed="13.89" length="27.20" shape="492.00,3013.60 492.00,2986.40"/>
        <lane id=":B6_1_1" index="1" speed="13.89" length="27.20" shape="495.20,3013.60 495.20,2986.40"/>
        <lane id=":B6_1_2" index="2" speed="13.89" length="27.20" shape="498.40,3013.60 498.40,2986.40"/>
    </edge>
    <edge id=":B6_4" function="internal">
        <lane id=":B6_4_0" index="0" speed="10.36" length="7.98" shape="498.40,3013.60 499.35,3006.95 500.00,3005.87"/>
    </edge>
    <edge id=":B6_5" function="internal">
        <lane id=":B6_5_0" index="0" speed="3.65" length="2.34" shape="498.40,3013.60 499.20,3012.40 500.00,3012.00"/>
    </edge>
    <edge id=":B6_24" function="internal">
        <lane id=":B6_24_0" index="0" speed="10.36" length="16.53" shape="500.00,3005.87 502.20,3002.20 506.95,2999.35 513.60,2998.40"/>
    </edge>
    <edge id=":B6_25" function="internal">
        <lane id=":B6_25_0" index="0" speed="3.65" length="2.34" shape="500.00,3012.00 500.80,3012.40 501.60,3013.60"/>
    </edge>
    <edge id=":B6_6" function="internal">
        <lane id=":B6_6_0" index="0" speed="6.51" length="9.03" shape="513.60,3008.00 511.15,3008.35 509.40,3009.40 508.35,3011.15 508.00,3013.60"/>
    </edge>
    <edge id=":B6_7" function="internal">
        <lane id=":B6_7_0" index="0" speed="13.89" length="27.20" shape="513.60,3008.00 486.40,3008.00"/>
        <lane id=":B6_7_1" index="1" speed="13.89" length="27.20" shape="513.60,3004.80 486.40,3004.80"/>
        <lane id=":B6_7_2" index="2" speed="13.89" length="27.20" shape="513.60,3001.60 486.40,3001.60"/>
    </edge>
    <edge id=":B6_10" function="internal">
        <lane id=":B6_10_0" index="0" speed="10.36" length="7.98" shape="513.60,3001.60 506.95,3000.65 505.87,3000.00"/>
    </edge>
    <edge id=":B6_11" function="internal">
        <lane id=":B6_11_0" index="0" speed="3.65" length="2.34" shape="513.60,3001.60 512.40,3000.80 512.00,3000.00"/>
    </edge>
    <edge id=":B6_26" function="internal">
        <lane id=":B6_26_0" index="0" speed="10.36" length="16.53" shape="505.87,3000.00 502.20,2997.80 499.35,2993.05 498.40,2986.40"/>
    </edge>
    <edge id=":B6_27" function="internal">
        <lane id=":B6_27_0" index="0" speed="3.65" length="2.34" shape="512.00,3000.00 512.40,2999.20 513.60,2998.40"/>
    </edge>
    <edge id=":B6_12" function="internal">
        <lane id=":B6_12_0" index="0" speed="6.51" length="9.03" shape="508.00,2986.40 508.35,2988.85 509.40,2990.60 511.15,2991.65 513.60,2992.00"/>
    </edge>
    <edge id=":B6_13" function="internal">
        <lane id=":B6_13_0" index="0" speed="13.89" length="27.20" shape="508.00,2986.40 508.00,3013.60"/>
        <lane id=":B6_13_1" index="1" speed="13.89" length="27.20" shape="504.80,2986.40 504.80,3013.60"/>
        <lane id=":B6_13_2" index="2" speed="13.89" length="27.20" shape="501.60,2986.40 501.60,3013.60"/>
    </edge>
    <edge id=":B6_16" function="internal">
        <lane id=":B6_16_0" index="0" speed="10.36" length="7.98" shape="501.60,2986.40 500.65,2993.05 500.00,2994.13"/>
    </edge>
    <edge id=":B6_17" function="internal">
        <lane id=":B6_17_0" index="0" speed="3.65" length="2.34" shape="501.60,2986.40 500.80,2987.60 500.00,2988.00"/>
    </edge>
    <edge id=":B6_28" function="internal">
        <lane id=":B6_28_0" index="0" speed="10.36" length="16.53" shape="500.00,2994.13 497.80,2997.80 493.05,3000.65 486.40,3001.60"/>
    </edge>
    <edge id=":B6_29" function="internal">
        <lane id=":B6_29_0" index="0" speed="3.65" length="2.34" shape="500.00,2988.00 499.20,2987.60 498.40,2986.40"/>
    </edge>
    <edge id=":B6_18" function="internal">
        <lane id=":B6_18_0" index="0" speed="6.51" length="9.03" shape="486.40,2992.00 488.85,2991.65 490.60,2990.60 491.65,2988.85 492.00,2986.40"/>
    </edge>
    <edge id=":B6_19" function="internal">
        <lane id=":B6_19_0" index="0" speed="13.89" length="27.20" shape="486.40,2992.00 513.60,2992.00"/>
        <lane id=":B6_19_1" index="1" speed="13.89" length="27.20" shape="486.40,2995.20 513.60,2995.20"/>
        <lane id=":B6_19_2" index="2" speed="13.89" length="27.20" shape="486.40,2998.40 513.60,2998.40"/>
    </edge>
    <edge id=":B6_22" function="internal">
        <lane id=":B6_22_0" index="0" speed="10.36" length="7.98" shape="486.40,2998.40 493.05,2999.35 494.13,3000.00"/>
    </edge>
    <edge id=":B6_23" function="internal">
        <lane id=":B6_23_0" index="0" speed="3.65" length="2.34" shape="486.40,2998.40 487.60,2999.20 488.00,3000.00"/>
    </edge>
    <edge id=":B6_30" function="internal">
        <lane id=":B6_30_0" index="0" speed="10.36" length="16.53" shape="494.13,3000.00 497.80,3002.20 500.65,3006.95 501.60,3013.60"/>
    </edge>
    <edge id=":B6_31" function="internal">
        <lane id=":B6_31_0" index="0" speed="3.65" length="2.34" shape="488.00,3000.00 487.60,3000.80 486.40,3001.60"/>
    </edge>
    <edge id=":B7_0" function="internal">
        <lane id=":B7_0_0" index="0" speed="3.65" length="4.67" shape="501.60,3500.00 500.80,3501.20 500.00,3501.60 499.20,3501.20 498.40,3500.00"/>
    </edge>
    <edge id=":C0_0" function="internal">
        <lane id=":C0_0_0" index="0" speed="3.65" length="4.67" shape="998.40,0.00 999.20,-1.20 1000.00,-1.60 1000.80,-1.20 1001.60,0.00"/>
    </edge>
    <edge id=":C1_0" function="internal">
        <lane id=":C1_0_0" index="0" speed="6.51" length="9.03" shape="992.00,513.60 991.65,511.15 990.60,509.40 988.85,508.35 986.40,508.00"/>
    </edge>
    <edge id=":C1_1" function="internal">
        <lane id=":C1_1_0" index="0" speed="13.89" length="27.20" shape="992.00,513.60 992.00,486.40"/>
        <lane id=":C1_1_1" index="1" speed="13.89" length="27.20" shape="995.20,513.60 995.20,486.40"/>
        <lane id=":C1_1_2" index="2" speed="13.89" length="27.20" shape="998.40,513.60 998.40,486.40"/>
    </edge>
    <edge id=":C1_4" function="internal">
        <lane id=":C1_4_0" index="0" speed="10.36" length="7.98" shape="998.40,513.60 999.35,506.95 1000.00,505.87"/>
    </edge>
    <edge id=":C1_5" function="internal">
        <lane id=":C1_5_0" index="0" speed="3.65" length="2.34" shape="998.40,513.60 999.20,512.40 1000.00,512.00"/>
    </edge>
    <edge id=":C1_23" function="internal">
        <lane id=":C1_23_0" index="0" speed="10.36" length="16.53" shape="1000.00,505.87 1002.20,502.20 1006.95,499.35 1013.60,498.40"/>
    </edge>
    <edge id=":C1_24" function="internal">
        <lane id=":C1_24_0" index="0" speed="3.65" length="2.34" shape="1000.00,512.00 1000.80,512.40 1001.60,513.60"/>
    </edge>
    <edge id=":C1_6" function="internal">
        <lane id=":C1_6_0" index="0" speed="6.51" length="9.03" shape="1013.60,508.00 1011.15,508.35 1009.40,509.40 1008.35,511.15 1008.00,513.60"/>
    </edge>
    <edge id=":C1_7" function="internal">
        <lane id=":C1_7_0" index="0" speed="13.89" length="27.20" shape="1013.60,508.00 986.40,508.00"/>