<?xml version="1.0" encoding="UTF-8"?>

<!-- generated on 05/12/21 19:17:20 by Eclipse SUMO netedit Version 1.8.0
<configuration xmlns:xsi="http://www.w3.org/2001/XMLSchema-instance" xsi:noNamespaceSchemaLocation="http://sumo.dlr.de/xsd/netconvertConfiguration.xsd">

    <input>
        <sumo-net-file value="E:\StevenSU\OneDrive%20-%20City%20University%20of%20Hong%20Kong\Research%20in%20CityU\Code\SUMO_MFD\Bilevel_3.0\network\GridBuffer.net.xml"/>
    </input>

    <output>
        <output-file value="E:\StevenSU\OneDrive%20-%20City%20University%20of%20Hong%20Kong\Research%20in%20CityU\Code\SUMO_MFD\Bilevel_3.0\network\GridBuffer.net.xml"/>
        <plain-output-prefix value="E:\StevenSU\OneDrive%20-%20City%20University%20of%20Hong%20Kong\Research%20in%20CityU\Code\SUMO_MFD\Bilevel_3.0\network\GridBuffer\GridBuffer"/>
    </output>

    <processing>
        <geometry.min-radius.fix.railways value="false"/>
        <geometry.max-grade.fix value="false"/>
        <offset.disable-normalization value="true"/>
        <lefthand value="false"/>
    </processing>

    <junctions>
        <no-turnarounds value="true"/>
        <junctions.corner-detail value="5"/>
        <junctions.limit-turn-speed value="5.5"/>
        <rectangular-lane-cut value="false"/>
    </junctions>

    <pedestrian>
        <walkingareas value="false"/>
    </pedestrian>

    <netedit>
        <edgeTypes-output value="E:\StevenSU\OneDrive - City University of Hong Kong\Research in CityU\Code\SUMO_MFD\Bilevel_3.0\network\Edge.xml"/>
    </netedit>

    <report>
        <aggregate-warnings value="5"/>
    </report>

</configuration>
-->

<edges version="1.6" xmlns:xsi="http://www.w3.org/2001/XMLSchema-instance" xsi:noNamespaceSchemaLocation="http://sumo.dlr.de/xsd/edges_file.xsd">
    <edge id="0" from="0" to="1" priority="-1" numLanes="3" speed="13.89"/>
    <edge id="1" from="0" to="5" priority="-1" numLanes="3" speed="13.89"/>
    <edge id="10" from="3" to="8" priority="-1" numLanes="3" speed="13.89"/>
    <edge id="11" from="4" to="3" priority="-1" numLanes="3" speed="13.89"/>
    <edge id="12" from="4" to="9" priority="-1" numLanes="3" speed="13.89"/>
    <edge id="13" from="5" to="0" priority="-1" numLanes="3" speed="13.89"/>
    <edge id="14" from="5" to="6" priority="-1" numLanes="3" speed="13.89"/>
    <edge id="15" from="5" to="10" priority="-1" numLanes="3" speed="13.89"/>
    <edge id="16" from="6" to="1" priority="-1" numLanes="3" speed="13.89"/>
    <edge id="17" from="6" to="5" priority="-1" numLanes="3" speed="13.89"/>
    <edge id="18" from="6" to="7" priority="-1" numLanes="3" speed="13.89"/>
    <edge id="19" from="6" to="11" priority="-1" numLanes="3" speed="13.89"/>
    <edge id="2" from="1" to="0" priority="-1" numLanes="3" speed="13.89"/>
    <edge id="20" from="7" to="2" priority="-1" numLanes="3" speed="13.89"/>
    <edge id="21" from="7" to="6" priority="-1" numLanes="3" speed="13.89"/>
    <edge id="22" from="7" to="8" priority="-1" numLanes="3" speed="13.89"/>
    <edge id="23" from="7" to="12" priority="-1" numLanes="3" speed="13.89"/>
    <edge id="24" from="8" to="3" priority="-1" numLanes="3" speed="13.89"/>
    <edge id="25" from="8" to="7" priority="-1" numLanes="3" speed="13.89"/>
    <edge id="26" from="8" to="9" priority="-1" numLanes="3" speed="13.89"/>
    <edge id="27" from="8" to="13" priority="-1" numLanes="3" speed="13.89"/>
    <edge id="28" from="9" to="4" priority="-1" numLanes="3" speed="13.89"/>
    <edge id="29" from="9" to="8" priority="-1" numLanes="3" speed="13.89"/>
    <edge id="3" from="1" to="2" priority="-1" numLanes="3" speed="13.89"/>
    <edge id="30" from="9" to="14" priority="-1" numLanes="3" speed="13.89"/>
    <edge id="31" from="10" to="5" priority="-1" numLanes="3" speed="13.89"/>
    <edge id="32" from="10" to="11" priority="-1" numLanes="3" speed="13.89"/>
    <edge id="33" from="10" to="15" priority="-1" numLanes="3" speed="13.89"/>
    <edge id="34" from="11" to="6" priority="-1" numLanes="3" speed="13.89"/>
    <edge id="35" from="11" to="10" priority="-1" numLanes="3" speed="13.89"/>
    <edge id="36" from="11" to="12" priority="-1" numLanes="3" speed="13.89"/>
    <edge id="37" from="11" to="16" priority="-1" numLanes="3" speed="13.89"/>
    <edge id="38" from="12" to="7" priority="-1" numLanes="3" speed="13.89"/>
    <edge id="39" from="12" to="11" priority="-1" numLanes="3" speed="13.89"/>
    <edge id="4" from="1" to="6" priority="-1" numLanes="3" speed="13.89"/>
    <edge id="40" from="12" to="13" priority="-1" numLanes="3" speed="13.89"/>
    <edge id="41" from="12" to="17" priority="-1" numLanes="3" speed="13.89"/>
    <edge id="42" from="13" to="8" priority="-1" numLanes="3" speed="13.89"/>
    <edge id="43" from="13" to="12" priority="-1" numLanes="3" speed="13.89"/>
    <edge id="44" from="13" to="14" priority="-1" numLanes="3" speed="13.89"/>
    <edge id="45" from="13" to="18" priority="-1" numLanes="3" speed="13.89"/>
    <edge id="46" from="14" to="9" priority="-1" numLanes="3" speed="13.89"/>
    <edge id="47" from="14" to="13" priority="-1" numLanes="3" speed="13.89"/>
    <edge id="48" from="14" to="19" priority="-1" numLanes="3" speed="13.89"/>
    <edge id="49" from="15" to="10" priority="-1" numLanes="3" speed="13.89"/>
    <edge id="5" from="2" to="1" priority="-1" numLanes="3" speed="13.89"/>
    <edge id="50" from="15" to="16" priority="-1" numLanes="3" speed="13.89"/>
    <edge id="51" from="15" to="20" priority="-1" numLanes="3" speed="13.89"/>
    <edge id="52" from="16" to="11" priority="-1" numLanes="3" speed="13.89"/>
    <edge id="53" from="16" to="15" priority="-1" numLanes="3" speed="13.89"/>
    <edge id="54" from="16" to="17" priority="-1" numLanes="3" speed="13.89"/>
    <edge id="55" from="16" to="21" priority="-1" numLanes="3" speed="13.89"/>
    <edge id="56" from="17" to="12" priority="-1" numLanes="3" speed="13.89"/>
    <edge id="57" from="17" to="16" priority="-1" numLanes="3" speed="13.89"/>
    <edge id="58" from="17" to="18" priority="-1" numLanes="3" speed="13.89"/>
    <edge id="59" from="17" to="22" priority="-1" numLanes="3" speed="13.89"/>
    <edge id="6" from="2" to="3" priority="-1" numLanes="3" speed="13.89"/>
    <edge id="60" from="18" to="13" priority="-1" numLanes="3" speed="13.89"/>
    <edge id="61" from="18" to="17" priority="-1" numLanes="3" speed="13.89"/>
    <edge id="62" from="18" to="19" priority="-1" numLanes="3" speed="13.89"/>
    <edge id="63" from="18" to="23" priority="-1" numLanes="3" speed="13.89"/>
    <edge id="64" from="19" to="14" priority="-1" numLanes="3" speed="13.89"/>
    <edge id="65" from="19" to="18" priority="-1" numLanes="3" speed="13.89"/>
    <edge id="66" from="19" to="24" priority="-1" numLanes="3" speed="13.89"/>
    <edge id="67" from="20" to="15" priority="-1" numLanes="3" speed="13.89"/>
    <edge id="68" from="20" to="21" priority="-1" numLanes="3" speed="13.89"/>
    <edge id="69" from="21" to="16" priority="-1" numLanes="3" speed="13.89"/>
    <edge id="7" from="2" to="7" priority="-1" numLanes="3" speed="13.89"/>
    <edge id="70" from="21" to="20" priority="-1" numLanes="3" speed="13.89"/>
    <edge id="71" from="21" to="22" priority="-1" numLanes="3" speed="13.89"/>
    <edge id="72" from="22" to="17" priority="-1" numLanes="3" speed="13.89"/>
    <edge id="73" from="22" to="21" priority="-1" numLanes="3" speed="13.89"/>
    <edge id="74" from="22" to="23" priority="-1" numLanes="3" speed="13.89"/>
    <edge id="75" from="23" to="18" priority="-1" numLanes="3" speed="13.89"/>
    <edge id="76" from="23" to="22" priority="-1" numLanes="3" speed="13.89"/>
    <edge id="77" from="23" to="24" priority="-1" numLanes="3" speed="13.89"/>
    <edge id="78" from="24" to="19" priority="-1" numLanes="3" speed="13.89"/>
    <edge id="79" from="24" to="23" priority="-1" numLanes="3" speed="13.89"/>
    <edge id="8" from="3" to="2" priority="-1" numLanes="3" speed="13.89"/>
    <edge id="80" from="25" to="29" priority="-1" numLanes="3" speed="13.89"/>
    <edge id="81" from="25" to="2" priority="-1" numLanes="3" speed="13.89"/>
    <edge id="82" from="2" to="25" priority="-1" numLanes="3" speed="13.89"/>
    <edge id="83" from="26" to="14" priority="-1" numLanes="3" speed="13.89"/>
    <edge id="84" from="26" to="30" priority="-1" numLanes="3" speed="13.89"/>
    <edge id="85" from="14" to="26" priority="-1" numLanes="3" speed="13.89"/>
    <edge id="86" from="27" to="22" priority="-1" numLanes="3" speed="13.89"/>
    <edge id="87" from="27" to="31" priority="-1" numLanes="3" speed="13.89"/>
    <edge id="88" from="22" to="27" priority="-1" numLanes="3" speed="13.89"/>
    <edge id="89" from="28" to="32" priority="-1" numLanes="3" speed="13.89"/>
    <edge id="9" from="3" to="4" priority="-1" numLanes="3" speed="13.89"/>
    <edge id="90" from="28" to="10" priority="-1" numLanes="3" speed="13.89"/>
    <edge id="91" from="10" to="28" priority="-1" numLanes="3" speed="13.89"/>
    <edge id="92" from="29" to="25" priority="-1" numLanes="3" speed="13.89"/>
    <edge id="93" from="30" to="26" priority="-1" numLanes="3" speed="13.89"/>
    <edge id="94" from="31" to="27" priority="-1" numLanes="3" speed="13.89"/>
    <edge id="95" from="32" to="28" priority="-1" numLanes="3" speed="13.89"/>
</edges>
