<?xml version="1.0" encoding="UTF-8"?>

<!-- generated on 2022-05-19 11:24:01 by Eclipse SUMO netedit Version 1.10.0
<configuration xmlns:xsi="http://www.w3.org/2001/XMLSchema-instance" xsi:noNamespaceSchemaLocation="http://sumo.dlr.de/xsd/netconvertConfiguration.xsd">

    <input>
        <sumo-net-file value="D:\OneDrive%20-%20City%20University%20of%20Hong%20Kong\Research%20in%20CityU\Code\SUMO_MFD\Bilevel_Network_2.0\network\Bloomsbury\Bloomsbury.net.xml"/>
    </input>

    <output>
        <output-file value="D:\OneDrive%20-%20City%20University%20of%20Hong%20Kong\Research%20in%20CityU\Code\SUMO_MFD\Bilevel_Network_2.0\network\Bloomsbury\Bloomsbury.net.xml"/>
        <plain-output-prefix value="D:\OneDrive%20-%20City%20University%20of%20Hong%20Kong\Research%20in%20CityU\Code\SUMO_MFD\Bilevel_Network_2.0\network\Bloomsbury\Bloomsbury"/>
    </output>

    <processing>
        <geometry.min-radius.fix.railways value="false"/>
        <geometry.max-grade.fix value="false"/>
        <offset.disable-normalization value="true"/>
        <lefthand value="false"/>
    </processing>

    <junctions>
        <no-turnarounds value="true"/>
        <junctions.corner-detail value="5"/>
        <junctions.limit-turn-speed value="5.5"/>
        <rectangular-lane-cut value="false"/>
    </junctions>

    <pedestrian>
        <walkingareas value="false"/>
    </pedestrian>

    <report>
        <aggregate-warnings value="5"/>
    </report>

</configuration>
-->

<edges version="1.9" xmlns:xsi="http://www.w3.org/2001/XMLSchema-instance" xsi:noNamespaceSchemaLocation="http://sumo.dlr.de/xsd/edges_file.xsd">
    <edge id="-1202" from="3" to="51" priority="-1" numLanes="3" speed="13.89"/>
    <edge id="1004" from="1" to="9" priority="-1" numLanes="3" speed="13.89"/>
    <edge id="1010" from="3" to="11" priority="-1" numLanes="3" speed="13.89"/>
    <edge id="1013" from="4" to="12" priority="-1" numLanes="3" speed="13.89"/>
    <edge id="1016" from="5" to="13" priority="-1" numLanes="3" speed="13.89"/>
    <edge id="1019" from="6" to="14" priority="-1" numLanes="3" speed="13.89"/>
    <edge id="1023" from="8" to="9" priority="-1" numLanes="3" speed="13.89"/>
    <edge id="1025" from="9" to="1" priority="-1" numLanes="3" speed="13.89"/>
    <edge id="1026" from="9" to="8" priority="-1" numLanes="3" speed="13.89"/>
    <edge id="1027" from="9" to="10" priority="-1" numLanes="3" speed="13.89"/>
    <edge id="1028" from="9" to="17" priority="-1" numLanes="3" speed="13.89"/>
    <edge id="1030" from="10" to="9" priority="-1" numLanes="3" speed="13.89"/>
    <edge id="1031" from="10" to="11" priority="-1" numLanes="3" speed="13.89"/>
    <edge id="1033" from="11" to="3" priority="-1" numLanes="3" speed="13.89"/>
    <edge id="1034" from="11" to="10" priority="-1" numLanes="3" speed="13.89"/>
    <edge id="1035" from="11" to="12" priority="-1" numLanes="3" speed="13.89"/>
    <edge id="1036" from="11" to="19" priority="-1" numLanes="3" speed="13.89"/>
    <edge id="1037" from="12" to="4" priority="-1" numLanes="3" speed="13.89"/>
    <edge id="1038" from="12" to="11" priority="-1" numLanes="3" speed="13.89"/>
    <edge id="1039" from="12" to="13" priority="-1" numLanes="3" speed="13.89"/>
    <edge id="1040" from="12" to="20" priority="-1" numLanes="3" speed="13.89"/>
    <edge id="1041" from="13" to="5" priority="-1" numLanes="3" speed="13.89"/>
    <edge id="1042" from="13" to="12" priority="-1" numLanes="3" speed="13.89"/>
    <edge id="1043" from="13" to="14" priority="-1" numLanes="3" speed="13.89"/>
    <edge id="1044" from="13" to="21" priority="-1" numLanes="3" speed="13.89"/>
    <edge id="1045" from="14" to="6" priority="-1" numLanes="3" speed="13.89"/>
    <edge id="1046" from="14" to="13" priority="-1" numLanes="3" speed="13.89"/>
    <edge id="1047" from="14" to="15" priority="-1" numLanes="3" speed="13.89"/>
    <edge id="1048" from="14" to="22" priority="-1" numLanes="3" speed="13.89"/>
    <edge id="1050" from="15" to="14" priority="-1" numLanes="3" speed="13.89"/>
    <edge id="1053" from="16" to="17" priority="-1" numLanes="3" speed="13.89"/>
    <edge id="1055" from="17" to="9" priority="-1" numLanes="3" speed="13.89"/>
    <edge id="1056" from="17" to="16" priority="-1" numLanes="3" speed="13.89"/>
    <edge id="1057" from="17" to="18" priority="-1" numLanes="3" speed="13.89"/>
    <edge id="1058" from="17" to="25" priority="-1" numLanes="3" speed="13.89"/>
    <edge id="1060" from="18" to="17" priority="-1" numLanes="3" speed="13.89"/>
    <edge id="1061" from="18" to="19" priority="-1" numLanes="3" speed="13.89"/>
    <edge id="1062" from="18" to="26" priority="-1" numLanes="3" speed="13.89"/>
    <edge id="1063" from="19" to="11" priority="-1" numLanes="3" speed="13.89"/>
    <edge id="1064" from="19" to="18" priority="-1" numLanes="3" speed="13.89"/>
    <edge id="1065" from="19" to="20" priority="-1" numLanes="3" speed="13.89"/>
    <edge id="1066" from="19" to="27" priority="-1" numLanes="3" speed="13.89"/>
    <edge id="1067" from="20" to="12" priority="-1" numLanes="3" speed="13.89"/>
    <edge id="1068" from="20" to="19" priority="-1" numLanes="3" speed="13.89"/>
    <edge id="1069" from="20" to="21" priority="-1" numLanes="3" speed="13.89"/>
    <edge id="1071" from="21" to="13" priority="-1" numLanes="3" speed="13.89"/>
    <edge id="1072" from="21" to="20" priority="-1" numLanes="3" speed="13.89"/>
    <edge id="1073" from="21" to="22" priority="-1" numLanes="3" speed="13.89"/>
    <edge id="1075" from="22" to="14" priority="-1" numLanes="3" speed="13.89"/>
    <edge id="1076" from="22" to="21" priority="-1" numLanes="3" speed="13.89"/>
    <edge id="1077" from="22" to="23" priority="-1" numLanes="3" speed="13.89"/>
    <edge id="1078" from="22" to="30" priority="-1" numLanes="3" speed="13.89"/>
    <edge id="1080" from="23" to="22" priority="-1" numLanes="3" speed="13.89"/>
    <edge id="1085" from="25" to="17" priority="-1" numLanes="3" speed="13.89"/>
    <edge id="1088" from="25" to="33" priority="-1" numLanes="3" speed="13.89"/>
    <edge id="1089" from="26" to="18" priority="-1" numLanes="3" speed="13.89"/>
    <edge id="1092" from="26" to="34" priority="-1" numLanes="3" speed="13.89"/>
    <edge id="1093" from="27" to="19" priority="-1" numLanes="3" speed="13.89"/>
    <edge id="1096" from="27" to="35" priority="-1" numLanes="3" speed="13.89"/>
    <edge id="1105" from="30" to="22" priority="-1" numLanes="3" speed="13.89"/>
    <edge id="1108" from="30" to="38" priority="-1" numLanes="3" speed="13.89"/>
    <edge id="1113" from="32" to="33" priority="-1" numLanes="3" speed="13.89"/>
    <edge id="1115" from="33" to="25" priority="-1" numLanes="3" speed="13.89"/>
    <edge id="1116" from="33" to="32" priority="-1" numLanes="3" speed="13.89"/>
    <edge id="1117" from="33" to="34" priority="-1" numLanes="3" speed="13.89"/>
    <edge id="1118" from="33" to="41" priority="-1" numLanes="3" speed="13.89"/>
    <edge id="1119" from="34" to="26" priority="-1" numLanes="3" speed="13.89"/>
    <edge id="1120" from="34" to="33" priority="-1" numLanes="3" speed="13.89"/>
    <edge id="1121" from="34" to="35" priority="-1" numLanes="3" speed="13.89"/>
    <edge id="1122" from="34" to="42" priority="-1" numLanes="3" speed="13.89"/>
    <edge id="1123" from="35" to="27" priority="-1" numLanes="3" speed="13.89"/>
    <edge id="1124" from="35" to="34" priority="-1" numLanes="3" speed="13.89"/>
    <edge id="1125" from="35" to="36" priority="-1" numLanes="3" speed="13.89"/>
    <edge id="1126" from="35" to="43" priority="-1" numLanes="3" speed="13.89"/>
    <edge id="1128" from="36" to="35" priority="-1" numLanes="3" speed="13.89"/>
    <edge id="1129" from="36" to="37" priority="-1" numLanes="3" speed="13.89"/>
    <edge id="1132" from="37" to="36" priority="-1" numLanes="3" speed="13.89"/>
    <edge id="1133" from="37" to="38" priority="-1" numLanes="3" speed="13.89"/>
    <edge id="1135" from="38" to="30" priority="-1" numLanes="3" speed="13.89"/>
    <edge id="1136" from="38" to="37" priority="-1" numLanes="3" speed="13.89"/>
    <edge id="1137" from="38" to="39" priority="-1" numLanes="3" speed="13.89"/>
    <edge id="1138" from="38" to="46" priority="-1" numLanes="3" speed="13.89"/>
    <edge id="1140" from="39" to="38" priority="-1" numLanes="3" speed="13.89"/>
    <edge id="1144" from="41" to="33" priority="-1" numLanes="3" speed="13.89"/>
    <edge id="1147" from="42" to="34" priority="-1" numLanes="3" speed="13.89"/>
    <edge id="1150" from="43" to="35" priority="-1" numLanes="3" speed="13.89"/>
    <edge id="1159" from="46" to="38" priority="-1" numLanes="3" speed="13.89"/>
    <edge id="1200" from="15" to="50" priority="-1" numLanes="3" speed="13.89"/>
    <edge id="1201" from="50" to="15" priority="-1" numLanes="3" speed="13.89"/>
    <edge id="1202" from="51" to="3" priority="-1" numLanes="3" speed="13.89"/>
    <edge id="1204" from="8" to="52" priority="-1" numLanes="3" speed="13.89"/>
    <edge id="1205" from="52" to="8" priority="-1" numLanes="3" speed="13.89"/>
    <edge id="1206" from="32" to="53" priority="-1" numLanes="3" speed="13.89"/>
    <edge id="1207" from="53" to="32" priority="-1" numLanes="3" speed="13.89"/>
    <edge id="1208" from="43" to="54" priority="-1" numLanes="3" speed="13.89"/>
    <edge id="1209" from="54" to="43" priority="-1" numLanes="3" speed="13.89"/>
    <edge id="1210" from="39" to="55" priority="-1" numLanes="3" speed="13.89"/>
    <edge id="1211" from="55" to="39" priority="-1" numLanes="3" speed="13.89"/>
</edges>
