<?xml version="1.0" encoding="UTF-8"?>

<!-- generated on 2022-05-19 11:24:01 by Eclipse SUMO netedit Version 1.10.0
<configuration xmlns:xsi="http://www.w3.org/2001/XMLSchema-instance" xsi:noNamespaceSchemaLocation="http://sumo.dlr.de/xsd/netconvertConfiguration.xsd">

    <input>
        <sumo-net-file value="D:\OneDrive%20-%20City%20University%20of%20Hong%20Kong\Research%20in%20CityU\Code\SUMO_MFD\Bilevel_Network_2.0\network\Bloomsbury\Bloomsbury.net.xml"/>
    </input>

    <output>
        <output-file value="D:\OneDrive%20-%20City%20University%20of%20Hong%20Kong\Research%20in%20CityU\Code\SUMO_MFD\Bilevel_Network_2.0\network\Bloomsbury\Bloomsbury.net.xml"/>
        <plain-output-prefix value="D:\OneDrive%20-%20City%20University%20of%20Hong%20Kong\Research%20in%20CityU\Code\SUMO_MFD\Bilevel_Network_2.0\network\Bloomsbury\Bloomsbury"/>
    </output>

    <processing>
        <geometry.min-radius.fix.railways value="false"/>
        <geometry.max-grade.fix value="false"/>
        <offset.disable-normalization value="true"/>
        <lefthand value="false"/>
    </processing>

    <junctions>
        <no-turnarounds value="true"/>
        <junctions.corner-detail value="5"/>
        <junctions.limit-turn-speed value="5.5"/>
        <rectangular-lane-cut value="false"/>
    </junctions>

    <pedestrian>
        <walkingareas value="false"/>
    </pedestrian>

    <report>
        <aggregate-warnings value="5"/>
    </report>

</configuration>
-->

<connections version="1.9" xmlns:xsi="http://www.w3.org/2001/XMLSchema-instance" xsi:noNamespaceSchemaLocation="http://sumo.dlr.de/xsd/connections_file.xsd">
    <connection from="-1202"/>

    <connection from="1004" to="1026" fromLane="0" toLane="0"/>
    <connection from="1004" to="1028" fromLane="0" toLane="0"/>
    <connection from="1004" to="1028" fromLane="1" toLane="1"/>
    <connection from="1004" to="1028" fromLane="2" toLane="2"/>
    <connection from="1004" to="1027" fromLane="2" toLane="2"/>
    <connection from="1004" to="1025" fromLane="2" toLane="2"/>

    <connection from="1010" to="1034" fromLane="0" toLane="0"/>
    <connection from="1010" to="1036" fromLane="0" toLane="0"/>
    <connection from="1010" to="1036" fromLane="1" toLane="1"/>
    <connection from="1010" to="1036" fromLane="2" toLane="2"/>
    <connection from="1010" to="1035" fromLane="2" toLane="2"/>
    <connection from="1010" to="1033" fromLane="2" toLane="2"/>

    <connection from="1013" to="1038" fromLane="0" toLane="0"/>
    <connection from="1013" to="1040" fromLane="0" toLane="0"/>
    <connection from="1013" to="1040" fromLane="1" toLane="1"/>
    <connection from="1013" to="1040" fromLane="2" toLane="2"/>
    <connection from="1013" to="1039" fromLane="2" toLane="2"/>
    <connection from="1013" to="1037" fromLane="2" toLane="2"/>

    <connection from="1016" to="1042" fromLane="0" toLane="0"/>
    <connection from="1016" to="1044" fromLane="0" toLane="0"/>
    <connection from="1016" to="1044" fromLane="1" toLane="1"/>
    <connection from="1016" to="1044" fromLane="2" toLane="2"/>
    <connection from="1016" to="1043" fromLane="2" toLane="2"/>
    <connection from="1016" to="1041" fromLane="2" toLane="2"/>

    <connection from="1019" to="1046" fromLane="0" toLane="0"/>
    <connection from="1019" to="1048" fromLane="0" toLane="0"/>
    <connection from="1019" to="1048" fromLane="1" toLane="1"/>
    <connection from="1019" to="1048" fromLane="2" toLane="2"/>
    <connection from="1019" to="1047" fromLane="2" toLane="2"/>
    <connection from="1019" to="1045" fromLane="2" toLane="2"/>

    <connection from="1023" to="1028" fromLane="0" toLane="0"/>
    <connection from="1023" to="1027" fromLane="0" toLane="0"/>
    <connection from="1023" to="1027" fromLane="1" toLane="1"/>
    <connection from="1023" to="1027" fromLane="2" toLane="2"/>
    <connection from="1023" to="1025" fromLane="2" toLane="2"/>
    <connection from="1023" to="1026" fromLane="2" toLane="2"/>

    <connection from="1025" to="1004" fromLane="2" toLane="2"/>

    <connection from="1026" to="1204" fromLane="0" toLane="0"/>
    <connection from="1026" to="1204" fromLane="1" toLane="1"/>
    <connection from="1026" to="1204" fromLane="2" toLane="2"/>
    <connection from="1026" to="1023" fromLane="2" toLane="2"/>

    <connection from="1027" to="1031" fromLane="0" toLane="0"/>
    <connection from="1027" to="1031" fromLane="1" toLane="1"/>
    <connection from="1027" to="1031" fromLane="2" toLane="2"/>
    <connection from="1027" to="1030" fromLane="2" toLane="2"/>

    <connection from="1028" to="1056" fromLane="0" toLane="0"/>
    <connection from="1028" to="1058" fromLane="0" toLane="0"/>
    <connection from="1028" to="1058" fromLane="1" toLane="1"/>
    <connection from="1028" to="1058" fromLane="2" toLane="2"/>
    <connection from="1028" to="1057" fromLane="2" toLane="2"/>
    <connection from="1028" to="1055" fromLane="2" toLane="2"/>

    <connection from="1030" to="1025" fromLane="0" toLane="0"/>
    <connection from="1030" to="1026" fromLane="0" toLane="0"/>
    <connection from="1030" to="1026" fromLane="1" toLane="1"/>
    <connection from="1030" to="1026" fromLane="2" toLane="2"/>
    <connection from="1030" to="1028" fromLane="2" toLane="2"/>
    <connection from="1030" to="1027" fromLane="2" toLane="2"/>

    <connection from="1031" to="1036" fromLane="0" toLane="0"/>
    <connection from="1031" to="1035" fromLane="0" toLane="0"/>
    <connection from="1031" to="1035" fromLane="1" toLane="1"/>
    <connection from="1031" to="1035" fromLane="2" toLane="2"/>
    <connection from="1031" to="1033" fromLane="2" toLane="2"/>
    <connection from="1031" to="1034" fromLane="2" toLane="2"/>

    <connection from="1033" to="-1202" fromLane="0" toLane="0"/>
    <connection from="1033" to="-1202" fromLane="1" toLane="1"/>
    <connection from="1033" to="-1202" fromLane="2" toLane="2"/>
    <connection from="1033" to="1010" fromLane="2" toLane="2"/>

    <connection from="1034" to="1030" fromLane="0" toLane="0"/>
    <connection from="1034" to="1030" fromLane="1" toLane="1"/>
    <connection from="1034" to="1030" fromLane="2" toLane="2"/>
    <connection from="1034" to="1031" fromLane="2" toLane="2"/>

    <connection from="1035" to="1040" fromLane="0" toLane="0"/>
    <connection from="1035" to="1039" fromLane="0" toLane="0"/>
    <connection from="1035" to="1039" fromLane="1" toLane="1"/>
    <connection from="1035" to="1039" fromLane="2" toLane="2"/>
    <connection from="1035" to="1037" fromLane="2" toLane="2"/>
    <connection from="1035" to="1038" fromLane="2" toLane="2"/>

    <connection from="1036" to="1064" fromLane="0" toLane="0"/>
    <connection from="1036" to="1066" fromLane="0" toLane="0"/>
    <connection from="1036" to="1066" fromLane="1" toLane="1"/>
    <connection from="1036" to="1066" fromLane="2" toLane="2"/>
    <connection from="1036" to="1065" fromLane="2" toLane="2"/>
    <connection from="1036" to="1063" fromLane="2" toLane="2"/>

    <connection from="1037" to="1013" fromLane="2" toLane="2"/>

    <connection from="1038" to="1033" fromLane="0" toLane="0"/>
    <connection from="1038" to="1034" fromLane="0" toLane="0"/>
    <connection from="1038" to="1034" fromLane="1" toLane="1"/>
    <connection from="1038" to="1034" fromLane="2" toLane="2"/>
    <connection from="1038" to="1036" fromLane="2" toLane="2"/>
    <connection from="1038" to="1035" fromLane="2" toLane="2"/>

    <connection from="1039" to="1044" fromLane="0" toLane="0"/>
    <connection from="1039" to="1043" fromLane="0" toLane="0"/>
    <connection from="1039" to="1043" fromLane="1" toLane="1"/>
    <connection from="1039" to="1043" fromLane="2" toLane="2"/>
    <connection from="1039" to="1041" fromLane="2" toLane="2"/>
    <connection from="1039" to="1042" fromLane="2" toLane="2"/>

    <connection from="1040" to="1068" fromLane="0" toLane="0"/>
    <connection from="1040" to="1069" fromLane="2" toLane="2"/>
    <connection from="1040" to="1067" fromLane="2" toLane="2"/>

    <connection from="1041" to="1016" fromLane="2" toLane="2"/>

    <connection from="1042" to="1037" fromLane="0" toLane="0"/>
    <connection from="1042" to="1038" fromLane="0" toLane="0"/>
    <connection from="1042" to="1038" fromLane="1" toLane="1"/>
    <connection from="1042" to="1038" fromLane="2" toLane="2"/>
    <connection from="1042" to="1040" fromLane="2" toLane="2"/>
    <connection from="1042" to="1039" fromLane="2" toLane="2"/>

    <connection from="1043" to="1048" fromLane="0" toLane="0"/>
    <connection from="1043" to="1047" fromLane="0" toLane="0"/>
    <connection from="1043" to="1047" fromLane="1" toLane="1"/>
    <connection from="1043" to="1047" fromLane="2" toLane="2"/>
    <connection from="1043" to="1045" fromLane="2" toLane="2"/>
    <connection from="1043" to="1046" fromLane="2" toLane="2"/>

    <connection from="1044" to="1072" fromLane="0" toLane="0"/>
    <connection from="1044" to="1073" fromLane="2" toLane="2"/>
    <connection from="1044" to="1071" fromLane="2" toLane="2"/>

    <connection from="1045" to="1019" fromLane="2" toLane="2"/>

    <connection from="1046" to="1041" fromLane="0" toLane="0"/>
    <connection from="1046" to="1042" fromLane="0" toLane="0"/>
    <connection from="1046" to="1042" fromLane="1" toLane="1"/>
    <connection from="1046" to="1042" fromLane="2" toLane="2"/>
    <connection from="1046" to="1044" fromLane="2" toLane="2"/>
    <connection from="1046" to="1043" fromLane="2" toLane="2"/>

    <connection from="1047" to="1200" fromLane="0" toLane="0"/>
    <connection from="1047" to="1200" fromLane="1" toLane="1"/>
    <connection from="1047" to="1200" fromLane="2" toLane="2"/>
    <connection from="1047" to="1050" fromLane="2" toLane="2"/>

    <connection from="1048" to="1076" fromLane="0" toLane="0"/>
    <connection from="1048" to="1078" fromLane="0" toLane="0"/>
    <connection from="1048" to="1078" fromLane="1" toLane="1"/>
    <connection from="1048" to="1078" fromLane="2" toLane="2"/>
    <connection from="1048" to="1077" fromLane="2" toLane="2"/>
    <connection from="1048" to="1075" fromLane="2" toLane="2"/>

    <connection from="1050" to="1045" fromLane="0" toLane="0"/>
    <connection from="1050" to="1046" fromLane="0" toLane="0"/>
    <connection from="1050" to="1046" fromLane="1" toLane="1"/>
    <connection from="1050" to="1046" fromLane="2" toLane="2"/>
    <connection from="1050" to="1048" fromLane="2" toLane="2"/>
    <connection from="1050" to="1047" fromLane="2" toLane="2"/>

    <connection from="1053" to="1058" fromLane="0" toLane="0"/>
    <connection from="1053" to="1057" fromLane="0" toLane="0"/>
    <connection from="1053" to="1057" fromLane="1" toLane="1"/>
    <connection from="1053" to="1057" fromLane="2" toLane="2"/>
    <connection from="1053" to="1055" fromLane="2" toLane="2"/>
    <connection from="1053" to="1056" fromLane="2" toLane="2"/>

    <connection from="1055" to="1027" fromLane="0" toLane="0"/>
    <connection from="1055" to="1025" fromLane="0" toLane="0"/>
    <connection from="1055" to="1025" fromLane="1" toLane="1"/>
    <connection from="1055" to="1025" fromLane="2" toLane="2"/>
    <connection from="1055" to="1026" fromLane="2" toLane="2"/>
    <connection from="1055" to="1028" fromLane="2" toLane="2"/>

    <connection from="1056" to="1053" fromLane="2" toLane="2"/>

    <connection from="1057" to="1062" fromLane="0" toLane="0"/>
    <connection from="1057" to="1061" fromLane="0" toLane="0"/>
    <connection from="1057" to="1061" fromLane="1" toLane="1"/>
    <connection from="1057" to="1061" fromLane="2" toLane="2"/>
    <connection from="1057" to="1060" fromLane="2" toLane="2"/>

    <connection from="1058" to="1088" fromLane="0" toLane="0"/>
    <connection from="1058" to="1088" fromLane="1" toLane="1"/>
    <connection from="1058" to="1088" fromLane="2" toLane="2"/>
    <connection from="1058" to="1085" fromLane="2" toLane="2"/>

    <connection from="1060" to="1055" fromLane="0" toLane="0"/>
    <connection from="1060" to="1056" fromLane="0" toLane="0"/>
    <connection from="1060" to="1056" fromLane="1" toLane="1"/>
    <connection from="1060" to="1056" fromLane="2" toLane="2"/>
    <connection from="1060" to="1058" fromLane="2" toLane="2"/>
    <connection from="1060" to="1057" fromLane="2" toLane="2"/>

    <connection from="1061" to="1066" fromLane="0" toLane="0"/>
    <connection from="1061" to="1065" fromLane="0" toLane="0"/>
    <connection from="1061" to="1065" fromLane="1" toLane="1"/>
    <connection from="1061" to="1065" fromLane="2" toLane="2"/>
    <connection from="1061" to="1063" fromLane="2" toLane="2"/>
    <connection from="1061" to="1064" fromLane="2" toLane="2"/>

    <connection from="1062" to="1092" fromLane="0" toLane="0"/>
    <connection from="1062" to="1092" fromLane="1" toLane="1"/>
    <connection from="1062" to="1092" fromLane="2" toLane="2"/>
    <connection from="1062" to="1089" fromLane="2" toLane="2"/>

    <connection from="1063" to="1035" fromLane="0" toLane="0"/>
    <connection from="1063" to="1033" fromLane="0" toLane="0"/>
    <connection from="1063" to="1033" fromLane="1" toLane="1"/>
    <connection from="1063" to="1033" fromLane="2" toLane="2"/>
    <connection from="1063" to="1034" fromLane="2" toLane="2"/>
    <connection from="1063" to="1036" fromLane="2" toLane="2"/>

    <connection from="1064" to="1060" fromLane="0" toLane="0"/>
    <connection from="1064" to="1060" fromLane="1" toLane="1"/>
    <connection from="1064" to="1060" fromLane="2" toLane="2"/>
    <connection from="1064" to="1062" fromLane="2" toLane="2"/>
    <connection from="1064" to="1061" fromLane="2" toLane="2"/>

    <connection from="1065" to="1069" fromLane="0" toLane="0"/>
    <connection from="1065" to="1069" fromLane="1" toLane="1"/>
    <connection from="1065" to="1069" fromLane="2" toLane="2"/>
    <connection from="1065" to="1067" fromLane="2" toLane="2"/>
    <connection from="1065" to="1068" fromLane="2" toLane="2"/>

    <connection from="1066" to="1096" fromLane="0" toLane="0"/>
    <connection from="1066" to="1096" fromLane="1" toLane="1"/>
    <connection from="1066" to="1096" fromLane="2" toLane="2"/>
    <connection from="1066" to="1093" fromLane="2" toLane="2"/>

    <connection from="1067" to="1039" fromLane="0" toLane="0"/>
    <connection from="1067" to="1037" fromLane="0" toLane="0"/>
    <connection from="1067" to="1037" fromLane="1" toLane="1"/>
    <connection from="1067" to="1037" fromLane="2" toLane="2"/>
    <connection from="1067" to="1038" fromLane="2" toLane="2"/>
    <connection from="1067" to="1040" fromLane="2" toLane="2"/>

    <connection from="1068" to="1063" fromLane="0" toLane="0"/>
    <connection from="1068" to="1064" fromLane="0" toLane="0"/>
    <connection from="1068" to="1064" fromLane="1" toLane="1"/>
    <connection from="1068" to="1064" fromLane="2" toLane="2"/>
    <connection from="1068" to="1066" fromLane="2" toLane="2"/>
    <connection from="1068" to="1065" fromLane="2" toLane="2"/>

    <connection from="1069" to="1073" fromLane="0" toLane="0"/>
    <connection from="1069" to="1073" fromLane="1" toLane="1"/>
    <connection from="1069" to="1073" fromLane="2" toLane="2"/>
    <connection from="1069" to="1071" fromLane="2" toLane="2"/>
    <connection from="1069" to="1072" fromLane="2" toLane="2"/>

    <connection from="1071" to="1043" fromLane="0" toLane="0"/>
    <connection from="1071" to="1041" fromLane="0" toLane="0"/>
    <connection from="1071" to="1041" fromLane="1" toLane="1"/>
    <connection from="1071" to="1041" fromLane="2" toLane="2"/>
    <connection from="1071" to="1042" fromLane="2" toLane="2"/>
    <connection from="1071" to="1044" fromLane="2" toLane="2"/>

    <connection from="1072" to="1067" fromLane="0" toLane="0"/>
    <connection from="1072" to="1068" fromLane="0" toLane="0"/>
    <connection from="1072" to="1068" fromLane="1" toLane="1"/>
    <connection from="1072" to="1068" fromLane="2" toLane="2"/>
    <connection from="1072" to="1069" fromLane="2" toLane="2"/>

    <connection from="1073" to="1078" fromLane="0" toLane="0"/>
    <connection from="1073" to="1077" fromLane="0" toLane="0"/>
    <connection from="1073" to="1077" fromLane="1" toLane="1"/>
    <connection from="1073" to="1077" fromLane="2" toLane="2"/>
    <connection from="1073" to="1075" fromLane="2" toLane="2"/>
    <connection from="1073" to="1076" fromLane="2" toLane="2"/>

    <connection from="1075" to="1047" fromLane="0" toLane="0"/>
    <connection from="1075" to="1045" fromLane="0" toLane="0"/>
    <connection from="1075" to="1045" fromLane="1" toLane="1"/>
    <connection from="1075" to="1045" fromLane="2" toLane="2"/>
    <connection from="1075" to="1046" fromLane="2" toLane="2"/>
    <connection from="1075" to="1048" fromLane="2" toLane="2"/>

    <connection from="1076" to="1071" fromLane="0" toLane="0"/>
    <connection from="1076" to="1072" fromLane="0" toLane="0"/>
    <connection from="1076" to="1072" fromLane="1" toLane="1"/>
    <connection from="1076" to="1072" fromLane="2" toLane="2"/>
    <connection from="1076" to="1073" fromLane="2" toLane="2"/>

    <connection from="1077" to="1080" fromLane="2" toLane="2"/>

    <connection from="1078" to="1108" fromLane="0" toLane="0"/>
    <connection from="1078" to="1108" fromLane="1" toLane="1"/>
    <connection from="1078" to="1108" fromLane="2" toLane="2"/>
    <connection from="1078" to="1105" fromLane="2" toLane="2"/>

    <connection from="1080" to="1075" fromLane="0" toLane="0"/>
    <connection from="1080" to="1076" fromLane="0" toLane="0"/>
    <connection from="1080" to="1076" fromLane="1" toLane="1"/>
    <connection from="1080" to="1076" fromLane="2" toLane="2"/>
    <connection from="1080" to="1078" fromLane="2" toLane="2"/>
    <connection from="1080" to="1077" fromLane="2" toLane="2"/>

    <connection from="1085" to="1057" fromLane="0" toLane="0"/>
    <connection from="1085" to="1055" fromLane="0" toLane="0"/>
    <connection from="1085" to="1055" fromLane="1" toLane="1"/>
    <connection from="1085" to="1055" fromLane="2" toLane="2"/>
    <connection from="1085" to="1056" fromLane="2" toLane="2"/>
    <connection from="1085" to="1058" fromLane="2" toLane="2"/>

    <connection from="1088" to="1116" fromLane="0" toLane="0"/>
    <connection from="1088" to="1118" fromLane="0" toLane="0"/>
    <connection from="1088" to="1118" fromLane="1" toLane="1"/>
    <connection from="1088" to="1118" fromLane="2" toLane="2"/>
    <connection from="1088" to="1117" fromLane="2" toLane="2"/>
    <connection from="1088" to="1115" fromLane="2" toLane="2"/>

    <connection from="1089" to="1061" fromLane="0" toLane="0"/>
    <connection from="1089" to="1060" fromLane="2" toLane="2"/>
    <connection from="1089" to="1062" fromLane="2" toLane="2"/>

    <connection from="1092" to="1120" fromLane="0" toLane="0"/>
    <connection from="1092" to="1122" fromLane="0" toLane="0"/>
    <connection from="1092" to="1122" fromLane="1" toLane="1"/>
    <connection from="1092" to="1122" fromLane="2" toLane="2"/>
    <connection from="1092" to="1121" fromLane="2" toLane="2"/>
    <connection from="1092" to="1119" fromLane="2" toLane="2"/>

    <connection from="1093" to="1065" fromLane="0" toLane="0"/>
    <connection from="1093" to="1063" fromLane="0" toLane="0"/>
    <connection from="1093" to="1063" fromLane="1" toLane="1"/>
    <connection from="1093" to="1063" fromLane="2" toLane="2"/>
    <connection from="1093" to="1064" fromLane="2" toLane="2"/>
    <connection from="1093" to="1066" fromLane="2" toLane="2"/>

    <connection from="1096" to="1124" fromLane="0" toLane="0"/>
    <connection from="1096" to="1126" fromLane="0" toLane="0"/>
    <connection from="1096" to="1126" fromLane="1" toLane="1"/>
    <connection from="1096" to="1126" fromLane="2" toLane="2"/>
    <connection from="1096" to="1125" fromLane="2" toLane="2"/>
    <connection from="1096" to="1123" fromLane="2" toLane="2"/>

    <connection from="1105" to="1077" fromLane="0" toLane="0"/>
    <connection from="1105" to="1075" fromLane="0" toLane="0"/>
    <connection from="1105" to="1075" fromLane="1" toLane="1"/>
    <connection from="1105" to="1075" fromLane="2" toLane="2"/>
    <connection from="1105" to="1076" fromLane="2" toLane="2"/>
    <connection from="1105" to="1078" fromLane="2" toLane="2"/>

    <connection from="1108" to="1136" fromLane="0" toLane="0"/>
    <connection from="1108" to="1138" fromLane="0" toLane="0"/>
    <connection from="1108" to="1138" fromLane="1" toLane="1"/>
    <connection from="1108" to="1138" fromLane="2" toLane="2"/>
    <connection from="1108" to="1137" fromLane="2" toLane="2"/>
    <connection from="1108" to="1135" fromLane="2" toLane="2"/>

    <connection from="1113" to="1118" fromLane="0" toLane="0"/>
    <connection from="1113" to="1117" fromLane="0" toLane="0"/>
    <connection from="1113" to="1117" fromLane="1" toLane="1"/>
    <connection from="1113" to="1117" fromLane="2" toLane="2"/>
    <connection from="1113" to="1115" fromLane="2" toLane="2"/>
    <connection from="1113" to="1116" fromLane="2" toLane="2"/>

    <connection from="1115" to="1085" fromLane="0" toLane="0"/>
    <connection from="1115" to="1085" fromLane="1" toLane="1"/>
    <connection from="1115" to="1085" fromLane="2" toLane="2"/>
    <connection from="1115" to="1088" fromLane="2" toLane="2"/>

    <connection from="1116" to="1206" fromLane="0" toLane="0"/>
    <connection from="1116" to="1206" fromLane="1" toLane="1"/>
    <connection from="1116" to="1206" fromLane="2" toLane="2"/>
    <connection from="1116" to="1113" fromLane="2" toLane="2"/>

    <connection from="1117" to="1122" fromLane="0" toLane="0"/>
    <connection from="1117" to="1121" fromLane="0" toLane="0"/>
    <connection from="1117" to="1121" fromLane="1" toLane="1"/>
    <connection from="1117" to="1121" fromLane="2" toLane="2"/>
    <connection from="1117" to="1119" fromLane="2" toLane="2"/>
    <connection from="1117" to="1120" fromLane="2" toLane="2"/>

    <connection from="1118" to="1144" fromLane="2" toLane="2"/>

    <connection from="1119" to="1089" fromLane="0" toLane="0"/>
    <connection from="1119" to="1089" fromLane="1" toLane="1"/>
    <connection from="1119" to="1089" fromLane="2" toLane="2"/>
    <connection from="1119" to="1092" fromLane="2" toLane="2"/>

    <connection from="1120" to="1115" fromLane="0" toLane="0"/>
    <connection from="1120" to="1116" fromLane="0" toLane="0"/>
    <connection from="1120" to="1116" fromLane="1" toLane="1"/>
    <connection from="1120" to="1116" fromLane="2" toLane="2"/>
    <connection from="1120" to="1118" fromLane="2" toLane="2"/>
    <connection from="1120" to="1117" fromLane="2" toLane="2"/>

    <connection from="1121" to="1126" fromLane="0" toLane="0"/>
    <connection from="1121" to="1125" fromLane="0" toLane="0"/>
    <connection from="1121" to="1125" fromLane="1" toLane="1"/>
    <connection from="1121" to="1125" fromLane="2" toLane="2"/>
    <connection from="1121" to="1123" fromLane="2" toLane="2"/>
    <connection from="1121" to="1124" fromLane="2" toLane="2"/>

    <connection from="1122" to="1147" fromLane="2" toLane="2"/>

    <connection from="1123" to="1093" fromLane="0" toLane="0"/>
    <connection from="1123" to="1093" fromLane="1" toLane="1"/>
    <connection from="1123" to="1093" fromLane="2" toLane="2"/>
    <connection from="1123" to="1096" fromLane="2" toLane="2"/>

    <connection from="1124" to="1119" fromLane="0" toLane="0"/>
    <connection from="1124" to="1120" fromLane="0" toLane="0"/>
    <connection from="1124" to="1120" fromLane="1" toLane="1"/>
    <connection from="1124" to="1120" fromLane="2" toLane="2"/>
    <connection from="1124" to="1122" fromLane="2" toLane="2"/>
    <connection from="1124" to="1121" fromLane="2" toLane="2"/>

    <connection from="1125" to="1129" fromLane="0" toLane="0"/>
    <connection from="1125" to="1129" fromLane="1" toLane="1"/>
    <connection from="1125" to="1129" fromLane="2" toLane="2"/>
    <connection from="1125" to="1128" fromLane="2" toLane="2"/>

    <connection from="1126" to="1208" fromLane="0" toLane="0" keepClear="0"/>
    <connection from="1126" to="1208" fromLane="1" toLane="1" keepClear="0"/>
    <connection from="1126" to="1208" fromLane="2" toLane="2" keepClear="0"/>
    <connection from="1126" to="1150" fromLane="2" toLane="2"/>

    <connection from="1128" to="1123" fromLane="0" toLane="0"/>
    <connection from="1128" to="1124" fromLane="0" toLane="0"/>
    <connection from="1128" to="1124" fromLane="1" toLane="1"/>
    <connection from="1128" to="1124" fromLane="2" toLane="2"/>
    <connection from="1128" to="1126" fromLane="2" toLane="2"/>
    <connection from="1128" to="1125" fromLane="2" toLane="2"/>

    <connection from="1129" to="1133" fromLane="0" toLane="0"/>
    <connection from="1129" to="1133" fromLane="1" toLane="1"/>
    <connection from="1129" to="1133" fromLane="2" toLane="2"/>
    <connection from="1129" to="1132" fromLane="2" toLane="2"/>

    <connection from="1132" to="1128" fromLane="0" toLane="0"/>
    <connection from="1132" to="1128" fromLane="1" toLane="1"/>
    <connection from="1132" to="1128" fromLane="2" toLane="2"/>
    <connection from="1132" to="1129" fromLane="2" toLane="2"/>

    <connection from="1133" to="1138" fromLane="0" toLane="0"/>
    <connection from="1133" to="1137" fromLane="0" toLane="0"/>
    <connection from="1133" to="1137" fromLane="1" toLane="1"/>
    <connection from="1133" to="1137" fromLane="2" toLane="2"/>
    <connection from="1133" to="1135" fromLane="2" toLane="2"/>
    <connection from="1133" to="1136" fromLane="2" toLane="2"/>

    <connection from="1135" to="1105" fromLane="0" toLane="0"/>
    <connection from="1135" to="1105" fromLane="1" toLane="1"/>
    <connection from="1135" to="1105" fromLane="2" toLane="2"/>
    <connection from="1135" to="1108" fromLane="2" toLane="2"/>

    <connection from="1136" to="1132" fromLane="0" toLane="0"/>
    <connection from="1136" to="1132" fromLane="1" toLane="1"/>
    <connection from="1136" to="1132" fromLane="2" toLane="2"/>
    <connection from="1136" to="1133" fromLane="2" toLane="2"/>

    <connection from="1137" to="1210" fromLane="0" toLane="0" keepClear="0"/>
    <connection from="1137" to="1210" fromLane="1" toLane="1" keepClear="0"/>
    <connection from="1137" to="1210" fromLane="2" toLane="2" keepClear="0"/>
    <connection from="1137" to="1140" fromLane="2" toLane="2"/>

    <connection from="1138" to="1159" fromLane="2" toLane="2"/>

    <connection from="1140" to="1135" fromLane="0" toLane="0"/>
    <connection from="1140" to="1136" fromLane="0" toLane="0"/>
    <connection from="1140" to="1136" fromLane="1" toLane="1"/>
    <connection from="1140" to="1136" fromLane="2" toLane="2"/>
    <connection from="1140" to="1138" fromLane="2" toLane="2"/>
    <connection from="1140" to="1137" fromLane="2" toLane="2"/>

    <connection from="1144" to="1117" fromLane="0" toLane="0"/>
    <connection from="1144" to="1115" fromLane="0" toLane="0"/>
    <connection from="1144" to="1115" fromLane="1" toLane="1"/>
    <connection from="1144" to="1115" fromLane="2" toLane="2"/>
    <connection from="1144" to="1116" fromLane="2" toLane="2"/>
    <connection from="1144" to="1118" fromLane="2" toLane="2"/>

    <connection from="1147" to="1121" fromLane="0" toLane="0"/>
    <connection from="1147" to="1119" fromLane="0" toLane="0"/>
    <connection from="1147" to="1119" fromLane="1" toLane="1"/>
    <connection from="1147" to="1119" fromLane="2" toLane="2"/>
    <connection from="1147" to="1120" fromLane="2" toLane="2"/>
    <connection from="1147" to="1122" fromLane="2" toLane="2"/>

    <connection from="1150" to="1125" fromLane="0" toLane="0"/>
    <connection from="1150" to="1123" fromLane="0" toLane="0"/>
    <connection from="1150" to="1123" fromLane="1" toLane="1"/>
    <connection from="1150" to="1123" fromLane="2" toLane="2"/>
    <connection from="1150" to="1124" fromLane="2" toLane="2"/>
    <connection from="1150" to="1126" fromLane="2" toLane="2"/>

    <connection from="1159" to="1137" fromLane="0" toLane="0"/>
    <connection from="1159" to="1135" fromLane="0" toLane="0"/>
    <connection from="1159" to="1135" fromLane="1" toLane="1"/>
    <connection from="1159" to="1135" fromLane="2" toLane="2"/>
    <connection from="1159" to="1136" fromLane="2" toLane="2"/>
    <connection from="1159" to="1138" fromLane="2" toLane="2"/>

    <connection from="1200"/>

    <connection from="1201" to="1050" fromLane="0" toLane="0"/>
    <connection from="1201" to="1050" fromLane="1" toLane="1"/>
    <connection from="1201" to="1050" fromLane="2" toLane="2"/>

    <connection from="1202" to="1010" fromLane="0" toLane="0"/>
    <connection from="1202" to="1010" fromLane="1" toLane="1"/>
    <connection from="1202" to="1010" fromLane="2" toLane="2"/>

    <connection from="1204"/>

    <connection from="1205" to="1023" fromLane="0" toLane="0"/>
    <connection from="1205" to="1023" fromLane="1" toLane="1"/>
    <connection from="1205" to="1023" fromLane="2" toLane="2"/>

    <connection from="1206"/>

    <connection from="1207" to="1113" fromLane="0" toLane="0"/>
    <connection from="1207" to="1113" fromLane="1" toLane="1"/>
    <connection from="1207" to="1113" fromLane="2" toLane="2"/>

    <connection from="1208"/>

    <connection from="1209" to="1150" fromLane="0" toLane="0" keepClear="0"/>
    <connection from="1209" to="1150" fromLane="1" toLane="1" keepClear="0"/>
    <connection from="1209" to="1150" fromLane="2" toLane="2" keepClear="0"/>

    <connection from="1210"/>

    <connection from="1211" to="1140" fromLane="0" toLane="0" keepClear="0"/>
    <connection from="1211" to="1140" fromLane="1" toLane="1" keepClear="0"/>
    <connection from="1211" to="1140" fromLane="2" toLane="2" keepClear="0"/>

</connections>
