<?xml version="1.0" encoding="UTF-8"?>

<!-- generated on 2022-05-17 16:07:36 by Eclipse SUMO netedit Version 1.10.0
<configuration xmlns:xsi="http://www.w3.org/2001/XMLSchema-instance" xsi:noNamespaceSchemaLocation="http://sumo.dlr.de/xsd/netconvertConfiguration.xsd">

    <input>
        <sumo-net-file value="D:\OneDrive%20-%20City%20University%20of%20Hong%20Kong\Research%20in%20CityU\Code\SUMO_MFD\Bilevel_Network_1.0\network\Bloomsbury\Bloomsbury7.net.xml"/>
    </input>

    <output>
        <output-file value="D:\OneDrive%20-%20City%20University%20of%20Hong%20Kong\Research%20in%20CityU\Code\SUMO_MFD\Bilevel_Network_1.0\network\Bloomsbury\Bloomsbury7.net.xml"/>
    </output>

    <processing>
        <geometry.min-radius.fix.railways value="false"/>
        <geometry.max-grade.fix value="false"/>
        <offset.disable-normalization value="true"/>
        <lefthand value="false"/>
    </processing>

    <junctions>
        <no-turnarounds value="true"/>
        <junctions.corner-detail value="5"/>
        <junctions.limit-turn-speed value="5.5"/>
        <rectangular-lane-cut value="false"/>
    </junctions>

    <pedestrian>
        <walkingareas value="false"/>
    </pedestrian>

    <netedit>
        <additional-files value="D:\OneDrive%20-%20City%20University%20of%20Hong%20Kong\Research%20in%20CityU\Code\SUMO_MFD\Bilevel_Network_1.0\network\Bloomsbury\Bloomsbury2.add.xml"/>
    </netedit>

    <report>
        <aggregate-warnings value="5"/>
    </report>

</configuration>
-->

<additional xmlns:xsi="http://www.w3.org/2001/XMLSchema-instance" xsi:noNamespaceSchemaLocation="http://sumo.dlr.de/xsd/additional_file.xsd">
	<edgeData id="EdgeMesurements" file="EdgeMesurements.xml" freq="100.00" excludeEmpty='True' />
    <e1Detector id="100400_in" lane="1004_0" pos="1.00" freq="50.00" file="1.xml"/>
    <e1Detector id="100400_out" lane="1004_0" pos="472.20" freq="50.00" file="1.xml"/>
    <e1Detector id="100401_in" lane="1004_1" pos="1.00" freq="50.00" file="1.xml"/>
    <e1Detector id="100401_out" lane="1004_1" pos="472.20" freq="50.00" file="1.xml"/>
    <e1Detector id="100402_in" lane="1004_2" pos="1.00" freq="50.00" file="1.xml"/>
    <e1Detector id="100402_out" lane="1004_2" pos="472.20" freq="50.00" file="1.xml"/>
    <e1Detector id="101000_in" lane="1010_0" pos="1.00" freq="50.00" file="1.xml"/>
    <e1Detector id="101000_out" lane="1010_0" pos="472.20" freq="50.00" file="1.xml"/>
    <e1Detector id="101001_in" lane="1010_1" pos="1.00" freq="50.00" file="1.xml"/>
    <e1Detector id="101001_out" lane="1010_1" pos="472.20" freq="50.00" file="1.xml"/>
    <e1Detector id="101002_in" lane="1010_2" pos="1.00" freq="50.00" file="1.xml"/>
    <e1Detector id="101002_out" lane="1010_2" pos="472.20" freq="50.00" file="1.xml"/>
    <e1Detector id="101300_in" lane="1013_0" pos="1.00" freq="50.00" file="1.xml"/>
    <e1Detector id="101300_out" lane="1013_0" pos="472.20" freq="50.00" file="1.xml"/>
    <e1Detector id="101301_in" lane="1013_1" pos="1.00" freq="50.00" file="1.xml"/>
    <e1Detector id="101301_out" lane="1013_1" pos="472.20" freq="50.00" file="1.xml"/>
    <e1Detector id="101302_in" lane="1013_2" pos="1.00" freq="50.00" file="1.xml"/>
    <e1Detector id="101302_out" lane="1013_2" pos="472.20" freq="50.00" file="1.xml"/>
    <e1Detector id="101600_in" lane="1016_0" pos="1.00" freq="50.00" file="1.xml"/>
    <e1Detector id="101600_out" lane="1016_0" pos="472.20" freq="50.00" file="1.xml"/>
    <e1Detector id="101601_in" lane="1016_1" pos="1.00" freq="50.00" file="1.xml"/>
    <e1Detector id="101601_out" lane="1016_1" pos="472.20" freq="50.00" file="1.xml"/>
    <e1Detector id="101602_in" lane="1016_2" pos="1.00" freq="50.00" file="1.xml"/>
    <e1Detector id="101602_out" lane="1016_2" pos="472.20" freq="50.00" file="1.xml"/>
    <e1Detector id="101900_in" lane="1019_0" pos="1.00" freq="50.00" file="1.xml"/>
    <e1Detector id="101900_out" lane="1019_0" pos="472.20" freq="50.00" file="1.xml"/>
    <e1Detector id="101901_in" lane="1019_1" pos="1.00" freq="50.00" file="1.xml"/>
    <e1Detector id="101901_out" lane="1019_1" pos="472.20" freq="50.00" file="1.xml"/>
    <e1Detector id="101902_in" lane="1019_2" pos="1.00" freq="50.00" file="1.xml"/>
    <e1Detector id="101902_out" lane="1019_2" pos="472.20" freq="50.00" file="1.xml"/>
    <e1Detector id="102300_in" lane="1023_0" pos="1.00" freq="50.00" file="1.xml"/>
    <e1Detector id="102300_out" lane="1023_0" pos="472.20" freq="50.00" file="1.xml"/>
    <e1Detector id="102301_in" lane="1023_1" pos="1.00" freq="50.00" file="1.xml"/>
    <e1Detector id="102301_out" lane="1023_1" pos="472.20" freq="50.00" file="1.xml"/>
    <e1Detector id="102302_in" lane="1023_2" pos="1.00" freq="50.00" file="1.xml"/>
    <e1Detector id="102302_out" lane="1023_2" pos="472.20" freq="50.00" file="1.xml"/>
    <e1Detector id="102500_in" lane="1025_0" pos="1.00" freq="50.00" file="1.xml"/>
    <e1Detector id="102500_out" lane="1025_0" pos="472.20" freq="50.00" file="1.xml"/>
    <e1Detector id="102501_in" lane="1025_1" pos="1.00" freq="50.00" file="1.xml"/>
    <e1Detector id="102501_out" lane="1025_1" pos="472.20" freq="50.00" file="1.xml"/>
    <e1Detector id="102502_in" lane="1025_2" pos="1.00" freq="50.00" file="1.xml"/>
    <e1Detector id="102502_out" lane="1025_2" pos="472.20" freq="50.00" file="1.xml"/>
    <e1Detector id="102600_in" lane="1026_0" pos="1.00" freq="50.00" file="1.xml"/>
    <e1Detector id="102600_out" lane="1026_0" pos="472.20" freq="50.00" file="1.xml"/>
    <e1Detector id="102601_in" lane="1026_1" pos="1.00" freq="50.00" file="1.xml"/>
    <e1Detector id="102601_out" lane="1026_1" pos="472.20" freq="50.00" file="1.xml"/>
    <e1Detector id="102602_in" lane="1026_2" pos="1.00" freq="50.00" file="1.xml"/>
    <e1Detector id="102602_out" lane="1026_2" pos="472.20" freq="50.00" file="1.xml"/>
    <e1Detector id="102700_in" lane="1027_0" pos="1.00" freq="50.00" file="1.xml"/>
    <e1Detector id="102700_out" lane="1027_0" pos="472.20" freq="50.00" file="1.xml"/>
    <e1Detector id="102701_in" lane="1027_1" pos="1.00" freq="50.00" file="1.xml"/>
    <e1Detector id="102701_out" lane="1027_1" pos="472.20" freq="50.00" file="1.xml"/>
    <e1Detector id="102702_in" lane="1027_2" pos="1.00" freq="50.00" file="1.xml"/>
    <e1Detector id="102702_out" lane="1027_2" pos="472.20" freq="50.00" file="1.xml"/>
    <e1Detector id="102800_in" lane="1028_0" pos="1.00" freq="50.00" file="1.xml"/>
    <e1Detector id="102800_out" lane="1028_0" pos="472.20" freq="50.00" file="1.xml"/>
    <e1Detector id="102801_in" lane="1028_1" pos="1.00" freq="50.00" file="1.xml"/>
    <e1Detector id="102801_out" lane="1028_1" pos="472.20" freq="50.00" file="1.xml"/>
    <e1Detector id="102802_in" lane="1028_2" pos="1.00" freq="50.00" file="1.xml"/>
    <e1Detector id="102802_out" lane="1028_2" pos="472.20" freq="50.00" file="1.xml"/>
    <e1Detector id="103000_in" lane="1030_0" pos="1.00" freq="50.00" file="1.xml"/>
    <e1Detector id="103000_out" lane="1030_0" pos="472.20" freq="50.00" file="1.xml"/>
    <e1Detector id="103001_in" lane="1030_1" pos="1.00" freq="50.00" file="1.xml"/>
    <e1Detector id="103001_out" lane="1030_1" pos="472.20" freq="50.00" file="1.xml"/>
    <e1Detector id="103002_in" lane="1030_2" pos="1.00" freq="50.00" file="1.xml"/>
    <e1Detector id="103002_out" lane="1030_2" pos="472.20" freq="50.00" file="1.xml"/>
    <e1Detector id="103100_in" lane="1031_0" pos="1.00" freq="50.00" file="1.xml"/>
    <e1Detector id="103100_out" lane="1031_0" pos="472.20" freq="50.00" file="1.xml"/>
    <e1Detector id="103101_in" lane="1031_1" pos="1.00" freq="50.00" file="1.xml"/>
    <e1Detector id="103101_out" lane="1031_1" pos="472.20" freq="50.00" file="1.xml"/>
    <e1Detector id="103102_in" lane="1031_2" pos="1.00" freq="50.00" file="1.xml"/>
    <e1Detector id="103102_out" lane="1031_2" pos="472.20" freq="50.00" file="1.xml"/>
    <e1Detector id="103300_in" lane="1033_0" pos="1.00" freq="50.00" file="1.xml"/>
    <e1Detector id="103300_out" lane="1033_0" pos="472.20" freq="50.00" file="1.xml"/>
    <e1Detector id="103301_in" lane="1033_1" pos="1.00" freq="50.00" file="1.xml"/>
    <e1Detector id="103301_out" lane="1033_1" pos="472.20" freq="50.00" file="1.xml"/>
    <e1Detector id="103302_in" lane="1033_2" pos="1.00" freq="50.00" file="1.xml"/>
    <e1Detector id="103302_out" lane="1033_2" pos="472.20" freq="50.00" file="1.xml"/>
    <e1Detector id="103400_in" lane="1034_0" pos="1.00" freq="50.00" file="1.xml"/>
    <e1Detector id="103400_out" lane="1034_0" pos="472.20" freq="50.00" file="1.xml"/>
    <e1Detector id="103401_in" lane="1034_1" pos="1.00" freq="50.00" file="1.xml"/>
    <e1Detector id="103401_out" lane="1034_1" pos="472.20" freq="50.00" file="1.xml"/>
    <e1Detector id="103402_in" lane="1034_2" pos="1.00" freq="50.00" file="1.xml"/>
    <e1Detector id="103402_out" lane="1034_2" pos="472.20" freq="50.00" file="1.xml"/>
    <e1Detector id="103500_in" lane="1035_0" pos="1.00" freq="50.00" file="1.xml"/>
    <e1Detector id="103500_out" lane="1035_0" pos="472.20" freq="50.00" file="1.xml"/>
    <e1Detector id="103501_in" lane="1035_1" pos="1.00" freq="50.00" file="1.xml"/>
    <e1Detector id="103501_out" lane="1035_1" pos="472.20" freq="50.00" file="1.xml"/>
    <e1Detector id="103502_in" lane="1035_2" pos="1.00" freq="50.00" file="1.xml"/>
    <e1Detector id="103502_out" lane="1035_2" pos="472.20" freq="50.00" file="1.xml"/>
    <e1Detector id="103600_in" lane="1036_0" pos="1.00" freq="50.00" file="1.xml"/>
    <e1Detector id="103600_out" lane="1036_0" pos="472.20" freq="50.00" file="1.xml"/>
    <e1Detector id="103601_in" lane="1036_1" pos="1.00" freq="50.00" file="1.xml"/>
    <e1Detector id="103601_out" lane="1036_1" pos="472.20" freq="50.00" file="1.xml"/>
    <e1Detector id="103602_in" lane="1036_2" pos="1.00" freq="50.00" file="1.xml"/>
    <e1Detector id="103602_out" lane="1036_2" pos="472.20" freq="50.00" file="1.xml"/>
    <e1Detector id="103700_in" lane="1037_0" pos="1.00" freq="50.00" file="1.xml"/>
    <e1Detector id="103700_out" lane="1037_0" pos="472.20" freq="50.00" file="1.xml"/>
    <e1Detector id="103701_in" lane="1037_1" pos="1.00" freq="50.00" file="1.xml"/>
    <e1Detector id="103701_out" lane="1037_1" pos="472.20" freq="50.00" file="1.xml"/>
    <e1Detector id="103702_in" lane="1037_2" pos="1.00" freq="50.00" file="1.xml"/>
    <e1Detector id="103702_out" lane="1037_2" pos="472.20" freq="50.00" file="1.xml"/>
    <e1Detector id="103800_in" lane="1038_0" pos="1.00" freq="50.00" file="1.xml"/>
    <e1Detector id="103800_out" lane="1038_0" pos="472.20" freq="50.00" file="1.xml"/>
    <e1Detector id="103801_in" lane="1038_1" pos="1.00" freq="50.00" file="1.xml"/>
    <e1Detector id="103801_out" lane="1038_1" pos="472.20" freq="50.00" file="1.xml"/>
    <e1Detector id="103802_in" lane="1038_2" pos="1.00" freq="50.00" file="1.xml"/>
    <e1Detector id="103802_out" lane="1038_2" pos="472.20" freq="50.00" file="1.xml"/>
    <e1Detector id="103900_in" lane="1039_0" pos="1.00" freq="50.00" file="1.xml"/>
    <e1Detector id="103900_out" lane="1039_0" pos="472.20" freq="50.00" file="1.xml"/>
    <e1Detector id="103901_in" lane="1039_1" pos="1.00" freq="50.00" file="1.xml"/>
    <e1Detector id="103901_out" lane="1039_1" pos="472.20" freq="50.00" file="1.xml"/>
    <e1Detector id="103902_in" lane="1039_2" pos="1.00" freq="50.00" file="1.xml"/>
    <e1Detector id="103902_out" lane="1039_2" pos="472.20" freq="50.00" file="1.xml"/>
    <e1Detector id="104000_in" lane="1040_0" pos="1.00" freq="50.00" file="1.xml"/>
    <e1Detector id="104000_out" lane="1040_0" pos="472.20" freq="50.00" file="1.xml"/>
    <e1Detector id="104001_in" lane="1040_1" pos="1.00" freq="50.00" file="1.xml"/>
    <e1Detector id="104001_out" lane="1040_1" pos="472.20" freq="50.00" file="1.xml"/>
    <e1Detector id="104002_in" lane="1040_2" pos="1.00" freq="50.00" file="1.xml"/>
    <e1Detector id="104002_out" lane="1040_2" pos="472.20" freq="50.00" file="1.xml"/>
    <e1Detector id="104100_in" lane="1041_0" pos="1.00" freq="50.00" file="1.xml"/>
    <e1Detector id="104100_out" lane="1041_0" pos="472.20" freq="50.00" file="1.xml"/>
    <e1Detector id="104101_in" lane="1041_1" pos="1.00" freq="50.00" file="1.xml"/>
    <e1Detector id="104101_out" lane="1041_1" pos="472.20" freq="50.00" file="1.xml"/>
    <e1Detector id="104102_in" lane="1041_2" pos="1.00" freq="50.00" file="1.xml"/>
    <e1Detector id="104102_out" lane="1041_2" pos="472.20" freq="50.00" file="1.xml"/>
    <e1Detector id="104200_in" lane="1042_0" pos="1.00" freq="50.00" file="1.xml"/>
    <e1Detector id="104200_out" lane="1042_0" pos="472.20" freq="50.00" file="1.xml"/>
    <e1Detector id="104201_in" lane="1042_1" pos="1.00" freq="50.00" file="1.xml"/>
    <e1Detector id="104201_out" lane="1042_1" pos="472.20" freq="50.00" file="1.xml"/>
    <e1Detector id="104202_in" lane="1042_2" pos="1.00" freq="50.00" file="1.xml"/>
    <e1Detector id="104202_out" lane="1042_2" pos="472.20" freq="50.00" file="1.xml"/>
    <e1Detector id="104300_in" lane="1043_0" pos="1.00" freq="50.00" file="1.xml"/>
    <e1Detector id="104300_out" lane="1043_0" pos="472.20" freq="50.00" file="1.xml"/>
    <e1Detector id="104301_in" lane="1043_1" pos="1.00" freq="50.00" file="1.xml"/>
    <e1Detector id="104301_out" lane="1043_1" pos="472.20" freq="50.00" file="1.xml"/>
    <e1Detector id="104302_in" lane="1043_2" pos="1.00" freq="50.00" file="1.xml"/>
    <e1Detector id="104302_out" lane="1043_2" pos="472.20" freq="50.00" file="1.xml"/>
    <e1Detector id="104400_in" lane="1044_0" pos="1.00" freq="50.00" file="1.xml"/>
    <e1Detector id="104400_out" lane="1044_0" pos="472.20" freq="50.00" file="1.xml"/>
    <e1Detector id="104401_in" lane="1044_1" pos="1.00" freq="50.00" file="1.xml"/>
    <e1Detector id="104401_out" lane="1044_1" pos="472.20" freq="50.00" file="1.xml"/>
    <e1Detector id="104402_in" lane="1044_2" pos="1.00" freq="50.00" file="1.xml"/>
    <e1Detector id="104402_out" lane="1044_2" pos="472.20" freq="50.00" file="1.xml"/>
    <e1Detector id="104500_in" lane="1045_0" pos="1.00" freq="50.00" file="1.xml"/>
    <e1Detector id="104500_out" lane="1045_0" pos="472.20" freq="50.00" file="1.xml"/>
    <e1Detector id="104501_in" lane="1045_1" pos="1.00" freq="50.00" file="1.xml"/>
    <e1Detector id="104501_out" lane="1045_1" pos="472.20" freq="50.00" file="1.xml"/>
    <e1Detector id="104502_in" lane="1045_2" pos="1.00" freq="50.00" file="1.xml"/>
    <e1Detector id="104502_out" lane="1045_2" pos="472.20" freq="50.00" file="1.xml"/>
    <e1Detector id="104600_in" lane="1046_0" pos="1.00" freq="50.00" file="1.xml"/>
    <e1Detector id="104600_out" lane="1046_0" pos="472.20" freq="50.00" file="1.xml"/>
    <e1Detector id="104601_in" lane="1046_1" pos="1.00" freq="50.00" file="1.xml"/>
    <e1Detector id="104601_out" lane="1046_1" pos="472.20" freq="50.00" file="1.xml"/>
    <e1Detector id="104602_in" lane="1046_2" pos="1.00" freq="50.00" file="1.xml"/>
    <e1Detector id="104602_out" lane="1046_2" pos="472.20" freq="50.00" file="1.xml"/>
    <e1Detector id="104700_in" lane="1047_0" pos="1.00" freq="50.00" file="1.xml"/>
    <e1Detector id="104700_out" lane="1047_0" pos="472.20" freq="50.00" file="1.xml"/>
    <e1Detector id="104701_in" lane="1047_1" pos="1.00" freq="50.00" file="1.xml"/>
    <e1Detector id="104701_out" lane="1047_1" pos="472.20" freq="50.00" file="1.xml"/>
    <e1Detector id="104702_in" lane="1047_2" pos="1.00" freq="50.00" file="1.xml"/>
    <e1Detector id="104702_out" lane="1047_2" pos="472.20" freq="50.00" file="1.xml"/>
    <e1Detector id="104800_in" lane="1048_0" pos="1.00" freq="50.00" file="1.xml"/>
    <e1Detector id="104800_out" lane="1048_0" pos="472.20" freq="50.00" file="1.xml"/>
    <e1Detector id="104801_in" lane="1048_1" pos="1.00" freq="50.00" file="1.xml"/>
    <e1Detector id="104801_out" lane="1048_1" pos="472.20" freq="50.00" file="1.xml"/>
    <e1Detector id="104802_in" lane="1048_2" pos="1.00" freq="50.00" file="1.xml"/>
    <e1Detector id="104802_out" lane="1048_2" pos="472.20" freq="50.00" file="1.xml"/>
    <e1Detector id="105000_in" lane="1050_0" pos="1.00" freq="50.00" file="1.xml"/>
    <e1Detector id="105000_out" lane="1050_0" pos="472.20" freq="50.00" file="1.xml"/>
    <e1Detector id="105001_in" lane="1050_1" pos="1.00" freq="50.00" file="1.xml"/>
    <e1Detector id="105001_out" lane="1050_1" pos="472.20" freq="50.00" file="1.xml"/>
    <e1Detector id="105002_in" lane="1050_2" pos="1.00" freq="50.00" file="1.xml"/>
    <e1Detector id="105002_out" lane="1050_2" pos="472.20" freq="50.00" file="1.xml"/>
    <e1Detector id="105300_in" lane="1053_0" pos="1.00" freq="50.00" file="1.xml"/>
    <e1Detector id="105300_out" lane="1053_0" pos="472.20" freq="50.00" file="1.xml"/>
    <e1Detector id="105301_in" lane="1053_1" pos="1.00" freq="50.00" file="1.xml"/>
    <e1Detector id="105301_out" lane="1053_1" pos="472.20" freq="50.00" file="1.xml"/>
    <e1Detector id="105302_in" lane="1053_2" pos="1.00" freq="50.00" file="1.xml"/>
    <e1Detector id="105302_out" lane="1053_2" pos="472.20" freq="50.00" file="1.xml"/>
    <e1Detector id="105500_in" lane="1055_0" pos="1.00" freq="50.00" file="1.xml"/>
    <e1Detector id="105500_out" lane="1055_0" pos="472.20" freq="50.00" file="1.xml"/>
    <e1Detector id="105501_in" lane="1055_1" pos="1.00" freq="50.00" file="1.xml"/>
    <e1Detector id="105501_out" lane="1055_1" pos="472.20" freq="50.00" file="1.xml"/>
    <e1Detector id="105502_in" lane="1055_2" pos="1.00" freq="50.00" file="1.xml"/>
    <e1Detector id="105502_out" lane="1055_2" pos="472.20" freq="50.00" file="1.xml"/>
    <e1Detector id="105600_in" lane="1056_0" pos="1.00" freq="50.00" file="1.xml"/>
    <e1Detector id="105600_out" lane="1056_0" pos="472.20" freq="50.00" file="1.xml"/>
    <e1Detector id="105601_in" lane="1056_1" pos="1.00" freq="50.00" file="1.xml"/>
    <e1Detector id="105601_out" lane="1056_1" pos="472.20" freq="50.00" file="1.xml"/>
    <e1Detector id="105602_in" lane="1056_2" pos="1.00" freq="50.00" file="1.xml"/>
    <e1Detector id="105602_out" lane="1056_2" pos="472.20" freq="50.00" file="1.xml"/>
    <e1Detector id="105700_in" lane="1057_0" pos="1.00" freq="50.00" file="1.xml"/>
    <e1Detector id="105700_out" lane="1057_0" pos="472.20" freq="50.00" file="1.xml"/>
    <e1Detector id="105701_in" lane="1057_1" pos="1.00" freq="50.00" file="1.xml"/>
    <e1Detector id="105701_out" lane="1057_1" pos="472.20" freq="50.00" file="1.xml"/>
    <e1Detector id="105702_in" lane="1057_2" pos="1.00" freq="50.00" file="1.xml"/>
    <e1Detector id="105702_out" lane="1057_2" pos="472.20" freq="50.00" file="1.xml"/>
    <e1Detector id="105800_in" lane="1058_0" pos="1.00" freq="50.00" file="1.xml"/>
    <e1Detector id="105800_out" lane="1058_0" pos="472.20" freq="50.00" file="1.xml"/>
    <e1Detector id="105801_in" lane="1058_1" pos="1.00" freq="50.00" file="1.xml"/>
    <e1Detector id="105801_out" lane="1058_1" pos="472.20" freq="50.00" file="1.xml"/>
    <e1Detector id="105802_in" lane="1058_2" pos="1.00" freq="50.00" file="1.xml"/>
    <e1Detector id="105802_out" lane="1058_2" pos="472.20" freq="50.00" file="1.xml"/>
    <e1Detector id="106000_in" lane="1060_0" pos="1.00" freq="50.00" file="1.xml"/>
    <e1Detector id="106000_out" lane="1060_0" pos="472.20" freq="50.00" file="1.xml"/>
    <e1Detector id="106001_in" lane="1060_1" pos="1.00" freq="50.00" file="1.xml"/>
    <e1Detector id="106001_out" lane="1060_1" pos="472.20" freq="50.00" file="1.xml"/>
    <e1Detector id="106002_in" lane="1060_2" pos="1.00" freq="50.00" file="1.xml"/>
    <e1Detector id="106002_out" lane="1060_2" pos="472.20" freq="50.00" file="1.xml"/>
    <e1Detector id="106100_in" lane="1061_0" pos="1.00" freq="50.00" file="1.xml"/>
    <e1Detector id="106100_out" lane="1061_0" pos="472.20" freq="50.00" file="1.xml"/>
    <e1Detector id="106101_in" lane="1061_1" pos="1.00" freq="50.00" file="1.xml"/>
    <e1Detector id="106101_out" lane="1061_1" pos="472.20" freq="50.00" file="1.xml"/>
    <e1Detector id="106102_in" lane="1061_2" pos="1.00" freq="50.00" file="1.xml"/>
    <e1Detector id="106102_out" lane="1061_2" pos="472.20" freq="50.00" file="1.xml"/>
    <e1Detector id="106200_in" lane="1062_0" pos="1.00" freq="50.00" file="1.xml"/>
    <e1Detector id="106200_out" lane="1062_0" pos="472.20" freq="50.00" file="1.xml"/>
    <e1Detector id="106201_in" lane="1062_1" pos="1.00" freq="50.00" file="1.xml"/>
    <e1Detector id="106201_out" lane="1062_1" pos="472.20" freq="50.00" file="1.xml"/>
    <e1Detector id="106202_in" lane="1062_2" pos="1.00" freq="50.00" file="1.xml"/>
    <e1Detector id="106202_out" lane="1062_2" pos="472.20" freq="50.00" file="1.xml"/>
    <e1Detector id="106300_in" lane="1063_0" pos="1.00" freq="50.00" file="1.xml"/>
    <e1Detector id="106300_out" lane="1063_0" pos="472.20" freq="50.00" file="1.xml"/>
    <e1Detector id="106301_in" lane="1063_1" pos="1.00" freq="50.00" file="1.xml"/>
    <e1Detector id="106301_out" lane="1063_1" pos="472.20" freq="50.00" file="1.xml"/>
    <e1Detector id="106302_in" lane="1063_2" pos="1.00" freq="50.00" file="1.xml"/>
    <e1Detector id="106302_out" lane="1063_2" pos="472.20" freq="50.00" file="1.xml"/>
    <e1Detector id="106400_in" lane="1064_0" pos="1.00" freq="50.00" file="1.xml"/>
    <e1Detector id="106400_out" lane="1064_0" pos="472.20" freq="50.00" file="1.xml"/>
    <e1Detector id="106401_in" lane="1064_1" pos="1.00" freq="50.00" file="1.xml"/>
    <e1Detector id="106401_out" lane="1064_1" pos="472.20" freq="50.00" file="1.xml"/>
    <e1Detector id="106402_in" lane="1064_2" pos="1.00" freq="50.00" file="1.xml"/>
    <e1Detector id="106402_out" lane="1064_2" pos="472.20" freq="50.00" file="1.xml"/>
    <e1Detector id="106500_in" lane="1065_0" pos="1.00" freq="50.00" file="1.xml"/>
    <e1Detector id="106500_out" lane="1065_0" pos="472.20" freq="50.00" file="1.xml"/>
    <e1Detector id="106501_in" lane="1065_1" pos="1.00" freq="50.00" file="1.xml"/>
    <e1Detector id="106501_out" lane="1065_1" pos="472.20" freq="50.00" file="1.xml"/>
    <e1Detector id="106502_in" lane="1065_2" pos="1.00" freq="50.00" file="1.xml"/>
    <e1Detector id="106502_out" lane="1065_2" pos="472.20" freq="50.00" file="1.xml"/>
    <e1Detector id="106600_in" lane="1066_0" pos="1.00" freq="50.00" file="1.xml"/>
    <e1Detector id="106600_out" lane="1066_0" pos="472.20" freq="50.00" file="1.xml"/>
    <e1Detector id="106601_in" lane="1066_1" pos="1.00" freq="50.00" file="1.xml"/>
    <e1Detector id="106601_out" lane="1066_1" pos="472.20" freq="50.00" file="1.xml"/>
    <e1Detector id="106602_in" lane="1066_2" pos="1.00" freq="50.00" file="1.xml"/>
    <e1Detector id="106602_out" lane="1066_2" pos="472.20" freq="50.00" file="1.xml"/>
    <e1Detector id="106700_in" lane="1067_0" pos="1.00" freq="50.00" file="1.xml"/>
    <e1Detector id="106700_out" lane="1067_0" pos="472.20" freq="50.00" file="1.xml"/>
    <e1Detector id="106701_in" lane="1067_1" pos="1.00" freq="50.00" file="1.xml"/>
    <e1Detector id="106701_out" lane="1067_1" pos="472.20" freq="50.00" file="1.xml"/>
    <e1Detector id="106702_in" lane="1067_2" pos="1.00" freq="50.00" file="1.xml"/>
    <e1Detector id="106702_out" lane="1067_2" pos="472.20" freq="50.00" file="1.xml"/>
    <e1Detector id="106800_in" lane="1068_0" pos="1.00" freq="50.00" file="1.xml"/>
    <e1Detector id="106800_out" lane="1068_0" pos="472.20" freq="50.00" file="1.xml"/>
    <e1Detector id="106801_in" lane="1068_1" pos="1.00" freq="50.00" file="1.xml"/>
    <e1Detector id="106801_out" lane="1068_1" pos="472.20" freq="50.00" file="1.xml"/>
    <e1Detector id="106802_in" lane="1068_2" pos="1.00" freq="50.00" file="1.xml"/>
    <e1Detector id="106802_out" lane="1068_2" pos="472.20" freq="50.00" file="1.xml"/>
    <e1Detector id="106900_in" lane="1069_0" pos="1.00" freq="50.00" file="1.xml"/>
    <e1Detector id="106900_out" lane="1069_0" pos="472.20" freq="50.00" file="1.xml"/>
    <e1Detector id="106901_in" lane="1069_1" pos="1.00" freq="50.00" file="1.xml"/>
    <e1Detector id="106901_out" lane="1069_1" pos="472.20" freq="50.00" file="1.xml"/>
    <e1Detector id="106902_in" lane="1069_2" pos="1.00" freq="50.00" file="1.xml"/>
    <e1Detector id="106902_out" lane="1069_2" pos="472.20" freq="50.00" file="1.xml"/>
    <e1Detector id="107100_in" lane="1071_0" pos="1.00" freq="50.00" file="1.xml"/>
    <e1Detector id="107100_out" lane="1071_0" pos="472.20" freq="50.00" file="1.xml"/>
    <e1Detector id="107101_in" lane="1071_1" pos="1.00" freq="50.00" file="1.xml"/>
    <e1Detector id="107101_out" lane="1071_1" pos="472.20" freq="50.00" file="1.xml"/>
    <e1Detector id="107102_in" lane="1071_2" pos="1.00" freq="50.00" file="1.xml"/>
    <e1Detector id="107102_out" lane="1071_2" pos="472.20" freq="50.00" file="1.xml"/>
    <e1Detector id="107200_in" lane="1072_0" pos="1.00" freq="50.00" file="1.xml"/>
    <e1Detector id="107200_out" lane="1072_0" pos="472.20" freq="50.00" file="1.xml"/>
    <e1Detector id="107201_in" lane="1072_1" pos="1.00" freq="50.00" file="1.xml"/>
    <e1Detector id="107201_out" lane="1072_1" pos="472.20" freq="50.00" file="1.xml"/>
    <e1Detector id="107202_in" lane="1072_2" pos="1.00" freq="50.00" file="1.xml"/>
    <e1Detector id="107202_out" lane="1072_2" pos="472.20" freq="50.00" file="1.xml"/>
    <e1Detector id="107300_in" lane="1073_0" pos="1.00" freq="50.00" file="1.xml"/>
    <e1Detector id="107300_out" lane="1073_0" pos="472.20" freq="50.00" file="1.xml"/>
    <e1Detector id="107301_in" lane="1073_1" pos="1.00" freq="50.00" file="1.xml"/>
    <e1Detector id="107301_out" lane="1073_1" pos="472.20" freq="50.00" file="1.xml"/>
    <e1Detector id="107302_in" lane="1073_2" pos="1.00" freq="50.00" file="1.xml"/>
    <e1Detector id="107302_out" lane="1073_2" pos="472.20" freq="50.00" file="1.xml"/>
    <e1Detector id="107500_in" lane="1075_0" pos="1.00" freq="50.00" file="1.xml"/>
    <e1Detector id="107500_out" lane="1075_0" pos="472.20" freq="50.00" file="1.xml"/>
    <e1Detector id="107501_in" lane="1075_1" pos="1.00" freq="50.00" file="1.xml"/>
    <e1Detector id="107501_out" lane="1075_1" pos="472.20" freq="50.00" file="1.xml"/>
    <e1Detector id="107502_in" lane="1075_2" pos="1.00" freq="50.00" file="1.xml"/>
    <e1Detector id="107502_out" lane="1075_2" pos="472.20" freq="50.00" file="1.xml"/>
    <e1Detector id="107600_in" lane="1076_0" pos="1.00" freq="50.00" file="1.xml"/>
    <e1Detector id="107600_out" lane="1076_0" pos="472.20" freq="50.00" file="1.xml"/>
    <e1Detector id="107601_in" lane="1076_1" pos="1.00" freq="50.00" file="1.xml"/>
    <e1Detector id="107601_out" lane="1076_1" pos="472.20" freq="50.00" file="1.xml"/>
    <e1Detector id="107602_in" lane="1076_2" pos="1.00" freq="50.00" file="1.xml"/>
    <e1Detector id="107602_out" lane="1076_2" pos="472.20" freq="50.00" file="1.xml"/>
    <e1Detector id="107700_in" lane="1077_0" pos="1.00" freq="50.00" file="1.xml"/>
    <e1Detector id="107700_out" lane="1077_0" pos="472.20" freq="50.00" file="1.xml"/>
    <e1Detector id="107701_in" lane="1077_1" pos="1.00" freq="50.00" file="1.xml"/>
    <e1Detector id="107701_out" lane="1077_1" pos="472.20" freq="50.00" file="1.xml"/>
    <e1Detector id="107702_in" lane="1077_2" pos="1.00" freq="50.00" file="1.xml"/>
    <e1Detector id="107702_out" lane="1077_2" pos="472.20" freq="50.00" file="1.xml"/>
    <e1Detector id="107800_in" lane="1078_0" pos="1.00" freq="50.00" file="1.xml"/>
    <e1Detector id="107800_out" lane="1078_0" pos="472.20" freq="50.00" file="1.xml"/>
    <e1Detector id="107801_in" lane="1078_1" pos="1.00" freq="50.00" file="1.xml"/>
    <e1Detector id="107801_out" lane="1078_1" pos="472.20" freq="50.00" file="1.xml"/>
    <e1Detector id="107802_in" lane="1078_2" pos="1.00" freq="50.00" file="1.xml"/>
    <e1Detector id="107802_out" lane="1078_2" pos="472.20" freq="50.00" file="1.xml"/>
    <e1Detector id="108000_in" lane="1080_0" pos="1.00" freq="50.00" file="1.xml"/>
    <e1Detector id="108000_out" lane="1080_0" pos="472.20" freq="50.00" file="1.xml"/>
    <e1Detector id="108001_in" lane="1080_1" pos="1.00" freq="50.00" file="1.xml"/>
    <e1Detector id="108001_out" lane="1080_1" pos="472.20" freq="50.00" file="1.xml"/>
    <e1Detector id="108002_in" lane="1080_2" pos="1.00" freq="50.00" file="1.xml"/>
    <e1Detector id="108002_out" lane="1080_2" pos="472.20" freq="50.00" file="1.xml"/>
    <e1Detector id="108500_in" lane="1085_0" pos="1.00" freq="50.00" file="1.xml"/>
    <e1Detector id="108500_out" lane="1085_0" pos="472.20" freq="50.00" file="1.xml"/>
    <e1Detector id="108501_in" lane="1085_1" pos="1.00" freq="50.00" file="1.xml"/>
    <e1Detector id="108501_out" lane="1085_1" pos="472.20" freq="50.00" file="1.xml"/>
    <e1Detector id="108502_in" lane="1085_2" pos="1.00" freq="50.00" file="1.xml"/>
    <e1Detector id="108502_out" lane="1085_2" pos="472.20" freq="50.00" file="1.xml"/>
    <e1Detector id="108800_in" lane="1088_0" pos="1.00" freq="50.00" file="1.xml"/>
    <e1Detector id="108800_out" lane="1088_0" pos="472.20" freq="50.00" file="1.xml"/>
    <e1Detector id="108801_in" lane="1088_1" pos="1.00" freq="50.00" file="1.xml"/>
    <e1Detector id="108801_out" lane="1088_1" pos="472.20" freq="50.00" file="1.xml"/>
    <e1Detector id="108802_in" lane="1088_2" pos="1.00" freq="50.00" file="1.xml"/>
    <e1Detector id="108802_out" lane="1088_2" pos="472.20" freq="50.00" file="1.xml"/>
    <e1Detector id="108900_in" lane="1089_0" pos="1.00" freq="50.00" file="1.xml"/>
    <e1Detector id="108900_out" lane="1089_0" pos="472.20" freq="50.00" file="1.xml"/>
    <e1Detector id="108901_in" lane="1089_1" pos="1.00" freq="50.00" file="1.xml"/>
    <e1Detector id="108901_out" lane="1089_1" pos="472.20" freq="50.00" file="1.xml"/>
    <e1Detector id="108902_in" lane="1089_2" pos="1.00" freq="50.00" file="1.xml"/>
    <e1Detector id="108902_out" lane="1089_2" pos="472.20" freq="50.00" file="1.xml"/>