<?xml version="1.0" encoding="UTF-8"?>

<!-- generated on 2022-05-19 11:24:01 by Eclipse SUMO netedit Version 1.10.0
<configuration xmlns:xsi="http://www.w3.org/2001/XMLSchema-instance" xsi:noNamespaceSchemaLocation="http://sumo.dlr.de/xsd/netconvertConfiguration.xsd">

    <input>
        <sumo-net-file value="D:\OneDrive%20-%20City%20University%20of%20Hong%20Kong\Research%20in%20CityU\Code\SUMO_MFD\Bilevel_Network_2.0\network\Bloomsbury\Bloomsbury.net.xml"/>
    </input>

    <output>
        <output-file value="D:\OneDrive%20-%20City%20University%20of%20Hong%20Kong\Research%20in%20CityU\Code\SUMO_MFD\Bilevel_Network_2.0\network\Bloomsbury\Bloomsbury.net.xml"/>
        <plain-output-prefix value="D:\OneDrive%20-%20City%20University%20of%20Hong%20Kong\Research%20in%20CityU\Code\SUMO_MFD\Bilevel_Network_2.0\network\Bloomsbury\Bloomsbury"/>
    </output>

    <processing>
        <geometry.min-radius.fix.railways value="false"/>
        <geometry.max-grade.fix value="false"/>
        <offset.disable-normalization value="true"/>
        <lefthand value="false"/>
    </processing>

    <junctions>
        <no-turnarounds value="true"/>
        <junctions.corner-detail value="5"/>
        <junctions.limit-turn-speed value="5.5"/>
        <rectangular-lane-cut value="false"/>
    </junctions>

    <pedestrian>
        <walkingareas value="false"/>
    </pedestrian>

    <report>
        <aggregate-warnings value="5"/>
    </report>

</configuration>
-->

<tlLogics version="1.9" xmlns:xsi="http://www.w3.org/2001/XMLSchema-instance" xsi:noNamespaceSchemaLocation="http://sumo.dlr.de/xsd/tllogic_file.xsd">
    <tlLogic id="15" type="static" programID="0" offset="0">
        <phase duration="45" state="GGGGGGg"/>
        <phase duration="5"  state="yyyGGGg"/>
        <phase duration="45" state="rrrGGGg"/>
        <phase duration="5"  state="yyyGGGg"/>
    </tlLogic>
    <tlLogic id="18" type="static" programID="0" offset="0">
        <phase duration="42" state="GGGggrrrGGGGg"/>
        <phase duration="3"  state="yyyyyrrryyyyy"/>
        <phase duration="42" state="rrrrrGGgGrrrr"/>
        <phase duration="3"  state="rrrrryyyyrrrr"/>
    </tlLogic>
    <tlLogic id="20" type="static" programID="0" offset="0">
        <phase duration="42" state="GGGGgGGGggrrr"/>
        <phase duration="3"  state="yyyyyyyyyyrrr"/>
        <phase duration="42" state="GrrrrrrrrrGGg"/>
        <phase duration="3"  state="yrrrrrrrrryyy"/>
    </tlLogic>
    <tlLogic id="21" type="static" programID="0" offset="0">
        <phase duration="42" state="GGGGgGGGggrrr"/>
        <phase duration="3"  state="yyyyyyyyyyrrr"/>
        <phase duration="42" state="GrrrrrrrrrGGg"/>
        <phase duration="3"  state="yrrrrrrrrryyy"/>
    </tlLogic>
    <tlLogic id="3" type="static" programID="0" offset="0">
        <phase duration="45" state="GGGgGGG"/>
        <phase duration="5"  state="GGGgyyy"/>
        <phase duration="45" state="GGGgrrr"/>
        <phase duration="5"  state="GGGgyyy"/>
    </tlLogic>
    <tlLogic id="32" type="static" programID="0" offset="0">
        <phase duration="82" state="GGGgGGG"/>
        <phase duration="5"  state="GGGgyyy"/>
        <phase duration="45" state="GGGgrrr"/>
        <phase duration="5"  state="GGGgyyy"/>
    </tlLogic>
    <tlLogic id="39" type="static" programID="0" offset="0">
        <phase duration="45" state="GGGGGGg"/>
        <phase duration="5"  state="yyyGGGg"/>
        <phase duration="45" state="rrrGGGg"/>
        <phase duration="5"  state="yyyGGGg"/>
    </tlLogic>
    <tlLogic id="43" type="static" programID="0" offset="0">
        <phase duration="45" state="GGGGGGg"/>
        <phase duration="5"  state="yyyGGGg"/>
        <phase duration="45" state="rrrGGGg"/>
        <phase duration="5"  state="yyyGGGg"/>
    </tlLogic>
    <tlLogic id="8" type="static" programID="0" offset="0">
        <phase duration="45" state="GGGgGGG"/>
        <phase duration="5"  state="GGGgyyy"/>
        <phase duration="45" state="GGGgrrr"/>
        <phase duration="5"  state="GGGgyyy"/>
    </tlLogic>
    <tlLogic id="B1" type="static" programID="0" offset="0">
        <phase duration="42" state="GGGGggrrrrrrGGGGggrrrrrr"/>
        <phase duration="5"  state="yyyyyyrrrrrryyyyyyrrrrrr"/>
        <phase duration="42" state="rrrrrrGGGGggrrrrrrGGGGgg"/>
        <phase duration="5"  state="rrrrrryyyyyyrrrrrryyyyyy"/>
    </tlLogic>
    <tlLogic id="B3" type="static" programID="0" offset="0">
        <phase duration="42" state="GGGGggrrrrrrGGGGggrrrrrr"/>
        <phase duration="5"  state="yyyyyyrrrrrryyyyyyrrrrrr"/>
        <phase duration="42" state="rrrrrrGGGGggrrrrrrGGGGgg"/>
        <phase duration="5"  state="rrrrrryyyyyyrrrrrryyyyyy"/>
    </tlLogic>
    <tlLogic id="B4" type="static" programID="0" offset="0">
        <phase duration="42" state="GGGGggrrrrrrGGGGggrrrrrr"/>
        <phase duration="5"  state="yyyyyyrrrrrryyyyyyrrrrrr"/>
        <phase duration="42" state="rrrrrrGGGGggrrrrrrGGGGgg"/>
        <phase duration="5"  state="rrrrrryyyyyyrrrrrryyyyyy"/>
    </tlLogic>
    <tlLogic id="B5" type="static" programID="0" offset="0">
        <phase duration="42" state="GGGGggrrrrrrGGGGggrrrrrr"/>
        <phase duration="5"  state="yyyyyyrrrrrryyyyyyrrrrrr"/>
        <phase duration="42" state="rrrrrrGGGGggrrrrrrGGGGgg"/>
        <phase duration="5"  state="rrrrrryyyyyyrrrrrryyyyyy"/>
    </tlLogic>
    <tlLogic id="B6" type="static" programID="0" offset="0">
        <phase duration="42" state="GGGGggrrrrrrGGGGggrrrrrr"/>
        <phase duration="5"  state="yyyyyyrrrrrryyyyyyrrrrrr"/>
        <phase duration="42" state="rrrrrrGGGGggrrrrrrGGGGgg"/>
        <phase duration="5"  state="rrrrrryyyyyyrrrrrryyyyyy"/>
    </tlLogic>
    <tlLogic id="C1" type="static" programID="0" offset="0">
        <phase duration="42" state="GGGGggrrrrrrGGGGggrrrrrr"/>
        <phase duration="5"  state="yyyyyyrrrrrryyyyyyrrrrrr"/>
        <phase duration="42" state="rrrrrrGGGGggrrrrrrGGGGgg"/>
        <phase duration="5"  state="rrrrrryyyyyyrrrrrryyyyyy"/>
    </tlLogic>
    <tlLogic id="C3" type="static" programID="0" offset="0">
        <phase duration="42" state="GGGGggrrrrrrGGGGggrrrrrr"/>
        <phase duration="5"  state="yyyyyyrrrrrryyyyyyrrrrrr"/>
        <phase duration="42" state="rrrrrrGGGGggrrrrrrGGGGgg"/>
        <phase duration="5"  state="rrrrrryyyyyyrrrrrryyyyyy"/>
    </tlLogic>
    <tlLogic id="C6" type="static" programID="0" offset="0">
        <phase duration="42" state="GGGGggrrrrrrGGGGggrrrrrr"/>
        <phase duration="5"  state="yyyyyyrrrrrryyyyyyrrrrrr"/>
        <phase duration="42" state="rrrrrrGGGGggrrrrrrGGGGgg"/>
        <phase duration="5"  state="rrrrrryyyyyyrrrrrryyyyyy"/>
    </tlLogic>
    <tlLogic id="E1" type="static" programID="0" offset="0">
        <phase duration="42" state="GGGGggrrrrrrGGGGggrrrrrr"/>
        <phase duration="5"  state="yyyyyyrrrrrryyyyyyrrrrrr"/>
        <phase duration="42" state="rrrrrrGGGGggrrrrrrGGGGgg"/>
        <phase duration="5"  state="rrrrrryyyyyyrrrrrryyyyyy"/>
    </tlLogic>
    <tlLogic id="E2" type="static" programID="0" offset="0">
        <phase duration="42" state="GGGGggrrrrrrGGGGggrrrrrr"/>
        <phase duration="5"  state="yyyyyyrrrrrryyyyyyrrrrrr"/>
        <phase duration="42" state="rrrrrrGGGGggrrrrrrGGGGgg"/>
        <phase duration="5"  state="rrrrrryyyyyyrrrrrryyyyyy"/>
    </tlLogic>
    <tlLogic id="E3" type="static" programID="0" offset="0">
        <phase duration="42" state="GGGGggrrrrrrGGGGggrrrrrr"/>
        <phase duration="5"  state="yyyyyyrrrrrryyyyyyrrrrrr"/>
        <phase duration="42" state="rrrrrrGGGGggrrrrrrGGGGgg"/>
        <phase duration="5"  state="rrrrrryyyyyyrrrrrryyyyyy"/>
    </tlLogic>
    <tlLogic id="E6" type="static" programID="0" offset="0">
        <phase duration="42" state="GGGGggrrrrrrGGGGggrrrrrr"/>
        <phase duration="5"  state="yyyyyyrrrrrryyyyyyrrrrrr"/>
        <phase duration="42" state="rrrrrrGGGGggrrrrrrGGGGgg"/>
        <phase duration="5"  state="rrrrrryyyyyyrrrrrryyyyyy"/>
    </tlLogic>

    <connection from="1004" to="1026" fromLane="0" toLane="0" tl="B1" linkIndex="18"/>
    <connection from="1004" to="1028" fromLane="0" toLane="0" tl="B1" linkIndex="19"/>
    <connection from="1004" to="1028" fromLane="1" toLane="1" tl="B1" linkIndex="20"/>
    <connection from="1004" to="1028" fromLane="2" toLane="2" tl="B1" linkIndex="21"/>
    <connection from="1004" to="1027" fromLane="2" toLane="2" tl="B1" linkIndex="22"/>
    <connection from="1004" to="1025" fromLane="2" toLane="2" tl="B1" linkIndex="23"/>
    <connection from="1010" to="1034" fromLane="0" toLane="0" tl="B3" linkIndex="18"/>
    <connection from="1010" to="1036" fromLane="0" toLane="0" tl="B3" linkIndex="19"/>
    <connection from="1010" to="1036" fromLane="1" toLane="1" tl="B3" linkIndex="20"/>
    <connection from="1010" to="1036" fromLane="2" toLane="2" tl="B3" linkIndex="21"/>
    <connection from="1010" to="1035" fromLane="2" toLane="2" tl="B3" linkIndex="22"/>
    <connection from="1010" to="1033" fromLane="2" toLane="2" tl="B3" linkIndex="23"/>
    <connection from="1013" to="1038" fromLane="0" toLane="0" tl="B4" linkIndex="18"/>
    <connection from="1013" to="1040" fromLane="0" toLane="0" tl="B4" linkIndex="19"/>
    <connection from="1013" to="1040" fromLane="1" toLane="1" tl="B4" linkIndex="20"/>
    <connection from="1013" to="1040" fromLane="2" toLane="2" tl="B4" linkIndex="21"/>
    <connection from="1013" to="1039" fromLane="2" toLane="2" tl="B4" linkIndex="22"/>
    <connection from="1013" to="1037" fromLane="2" toLane="2" tl="B4" linkIndex="23"/>
    <connection from="1016" to="1042" fromLane="0" toLane="0" tl="B5" linkIndex="18"/>
    <connection from="1016" to="1044" fromLane="0" toLane="0" tl="B5" linkIndex="19"/>
    <connection from="1016" to="1044" fromLane="1" toLane="1" tl="B5" linkIndex="20"/>
    <connection from="1016" to="1044" fromLane="2" toLane="2" tl="B5" linkIndex="21"/>
    <connection from="1016" to="1043" fromLane="2" toLane="2" tl="B5" linkIndex="22"/>
    <connection from="1016" to="1041" fromLane="2" toLane="2" tl="B5" linkIndex="23"/>
    <connection from="1019" to="1046" fromLane="0" toLane="0" tl="B6" linkIndex="18"/>
    <connection from="1019" to="1048" fromLane="0" toLane="0" tl="B6" linkIndex="19"/>
    <connection from="1019" to="1048" fromLane="1" toLane="1" tl="B6" linkIndex="20"/>
    <connection from="1019" to="1048" fromLane="2" toLane="2" tl="B6" linkIndex="21"/>
    <connection from="1019" to="1047" fromLane="2" toLane="2" tl="B6" linkIndex="22"/>
    <connection from="1019" to="1045" fromLane="2" toLane="2" tl="B6" linkIndex="23"/>
    <connection from="1023" to="1028" fromLane="0" toLane="0" tl="B1" linkIndex="12"/>
    <connection from="1023" to="1027" fromLane="0" toLane="0" tl="B1" linkIndex="13"/>
    <connection from="1023" to="1027" fromLane="1" toLane="1" tl="B1" linkIndex="14"/>
    <connection from="1023" to="1027" fromLane="2" toLane="2" tl="B1" linkIndex="15"/>
    <connection from="1023" to="1025" fromLane="2" toLane="2" tl="B1" linkIndex="16"/>
    <connection from="1023" to="1026" fromLane="2" toLane="2" tl="B1" linkIndex="17"/>
    <connection from="1026" to="1204" fromLane="0" toLane="0" tl="8" linkIndex="0"/>
    <connection from="1026" to="1204" fromLane="1" toLane="1" tl="8" linkIndex="1"/>
    <connection from="1026" to="1204" fromLane="2" toLane="2" tl="8" linkIndex="2"/>
    <connection from="1026" to="1023" fromLane="2" toLane="2" tl="8" linkIndex="3"/>
    <connection from="1028" to="1056" fromLane="0" toLane="0" tl="C1" linkIndex="18"/>
    <connection from="1028" to="1058" fromLane="0" toLane="0" tl="C1" linkIndex="19"/>
    <connection from="1028" to="1058" fromLane="1" toLane="1" tl="C1" linkIndex="20"/>
    <connection from="1028" to="1058" fromLane="2" toLane="2" tl="C1" linkIndex="21"/>
    <connection from="1028" to="1057" fromLane="2" toLane="2" tl="C1" linkIndex="22"/>
    <connection from="1028" to="1055" fromLane="2" toLane="2" tl="C1" linkIndex="23"/>
    <connection from="1030" to="1025" fromLane="0" toLane="0" tl="B1" linkIndex="0"/>
    <connection from="1030" to="1026" fromLane="0" toLane="0" tl="B1" linkIndex="1"/>
    <connection from="1030" to="1026" fromLane="1" toLane="1" tl="B1" linkIndex="2"/>
    <connection from="1030" to="1026" fromLane="2" toLane="2" tl="B1" linkIndex="3"/>
    <connection from="1030" to="1028" fromLane="2" toLane="2" tl="B1" linkIndex="4"/>
    <connection from="1030" to="1027" fromLane="2" toLane="2" tl="B1" linkIndex="5"/>
    <connection from="1031" to="1036" fromLane="0" toLane="0" tl="B3" linkIndex="12"/>
    <connection from="1031" to="1035" fromLane="0" toLane="0" tl="B3" linkIndex="13"/>
    <connection from="1031" to="1035" fromLane="1" toLane="1" tl="B3" linkIndex="14"/>
    <connection from="1031" to="1035" fromLane="2" toLane="2" tl="B3" linkIndex="15"/>
    <connection from="1031" to="1033" fromLane="2" toLane="2" tl="B3" linkIndex="16"/>
    <connection from="1031" to="1034" fromLane="2" toLane="2" tl="B3" linkIndex="17"/>
    <connection from="1033" to="-1202" fromLane="0" toLane="0" tl="3" linkIndex="0"/>
    <connection from="1033" to="-1202" fromLane="1" toLane="1" tl="3" linkIndex="1"/>
    <connection from="1033" to="-1202" fromLane="2" toLane="2" tl="3" linkIndex="2"/>
    <connection from="1033" to="1010" fromLane="2" toLane="2" tl="3" linkIndex="3"/>
    <connection from="1035" to="1040" fromLane="0" toLane="0" tl="B4" linkIndex="12"/>
    <connection from="1035" to="1039" fromLane="0" toLane="0" tl="B4" linkIndex="13"/>
    <connection from="1035" to="1039" fromLane="1" toLane="1" tl="B4" linkIndex="14"/>
    <connection from="1035" to="1039" fromLane="2" toLane="2" tl="B4" linkIndex="15"/>
    <connection from="1035" to="1037" fromLane="2" toLane="2" tl="B4" linkIndex="16"/>
    <connection from="1035" to="1038" fromLane="2" toLane="2" tl="B4" linkIndex="17"/>
    <connection from="1036" to="1064" fromLane="0" toLane="0" tl="C3" linkIndex="18"/>
    <connection from="1036" to="1066" fromLane="0" toLane="0" tl="C3" linkIndex="19"/>
    <connection from="1036" to="1066" fromLane="1" toLane="1" tl="C3" linkIndex="20"/>
    <connection from="1036" to="1066" fromLane="2" toLane="2" tl="C3" linkIndex="21"/>
    <connection from="1036" to="1065" fromLane="2" toLane="2" tl="C3" linkIndex="22"/>
    <connection from="1036" to="1063" fromLane="2" toLane="2" tl="C3" linkIndex="23"/>
    <connection from="1038" to="1033" fromLane="0" toLane="0" tl="B3" linkIndex="0"/>
    <connection from="1038" to="1034" fromLane="0" toLane="0" tl="B3" linkIndex="1"/>
    <connection from="1038" to="1034" fromLane="1" toLane="1" tl="B3" linkIndex="2"/>
    <connection from="1038" to="1034" fromLane="2" toLane="2" tl="B3" linkIndex="3"/>
    <connection from="1038" to="1036" fromLane="2" toLane="2" tl="B3" linkIndex="4"/>
    <connection from="1038" to="1035" fromLane="2" toLane="2" tl="B3" linkIndex="5"/>
    <connection from="1039" to="1044" fromLane="0" toLane="0" tl="B5" linkIndex="12"/>
    <connection from="1039" to="1043" fromLane="0" toLane="0" tl="B5" linkIndex="13"/>
    <connection from="1039" to="1043" fromLane="1" toLane="1" tl="B5" linkIndex="14"/>
    <connection from="1039" to="1043" fromLane="2" toLane="2" tl="B5" linkIndex="15"/>
    <connection from="1039" to="1041" fromLane="2" toLane="2" tl="B5" linkIndex="16"/>
    <connection from="1039" to="1042" fromLane="2" toLane="2" tl="B5" linkIndex="17"/>
    <connection from="1040" to="1068" fromLane="0" toLane="0" tl="20" linkIndex="10"/>
    <connection from="1040" to="1069" fromLane="2" toLane="2" tl="20" linkIndex="11"/>
    <connection from="1040" to="1067" fromLane="2" toLane="2" tl="20" linkIndex="12"/>
    <connection from="1042" to="1037" fromLane="0" toLane="0" tl="B4" linkIndex="0"/>
    <connection from="1042" to="1038" fromLane="0" toLane="0" tl="B4" linkIndex="1"/>
    <connection from="1042" to="1038" fromLane="1" toLane="1" tl="B4" linkIndex="2"/>
    <connection from="1042" to="1038" fromLane="2" toLane="2" tl="B4" linkIndex="3"/>
    <connection from="1042" to="1040" fromLane="2" toLane="2" tl="B4" linkIndex="4"/>
    <connection from="1042" to="1039" fromLane="2" toLane="2" tl="B4" linkIndex="5"/>
    <connection from="1043" to="1048" fromLane="0" toLane="0" tl="B6" linkIndex="12"/>
    <connection from="1043" to="1047" fromLane="0" toLane="0" tl="B6" linkIndex="13"/>
    <connection from="1043" to="1047" fromLane="1" toLane="1" tl="B6" linkIndex="14"/>
    <connection from="1043" to="1047" fromLane="2" toLane="2" tl="B6" linkIndex="15"/>
    <connection from="1043" to="1045" fromLane="2" toLane="2" tl="B6" linkIndex="16"/>
    <connection from="1043" to="1046" fromLane="2" toLane="2" tl="B6" linkIndex="17"/>
    <connection from="1044" to="1072" fromLane="0" toLane="0" tl="21" linkIndex="10"/>
    <connection from="1044" to="1073" fromLane="2" toLane="2" tl="21" linkIndex="11"/>
    <connection from="1044" to="1071" fromLane="2" toLane="2" tl="21" linkIndex="12"/>
    <connection from="1046" to="1041" fromLane="0" toLane="0" tl="B5" linkIndex="0"/>
    <connection from="1046" to="1042" fromLane="0" toLane="0" tl="B5" linkIndex="1"/>
    <connection from="1046" to="1042" fromLane="1" toLane="1" tl="B5" linkIndex="2"/>
    <connection from="1046" to="1042" fromLane="2" toLane="2" tl="B5" linkIndex="3"/>
    <connection from="1046" to="1044" fromLane="2" toLane="2" tl="B5" linkIndex="4"/>
    <connection from="1046" to="1043" fromLane="2" toLane="2" tl="B5" linkIndex="5"/>
    <connection from="1047" to="1200" fromLane="0" toLane="0" tl="15" linkIndex="3"/>
    <connection from="1047" to="1200" fromLane="1" toLane="1" tl="15" linkIndex="4"/>
    <connection from="1047" to="1200" fromLane="2" toLane="2" tl="15" linkIndex="5"/>
    <connection from="1047" to="1050" fromLane="2" toLane="2" tl="15" linkIndex="6"/>
    <connection from="1048" to="1076" fromLane="0" toLane="0" tl="C6" linkIndex="18"/>
    <connection from="1048" to="1078" fromLane="0" toLane="0" tl="C6" linkIndex="19"/>
    <connection from="1048" to="1078" fromLane="1" toLane="1" tl="C6" linkIndex="20"/>
    <connection from="1048" to="1078" fromLane="2" toLane="2" tl="C6" linkIndex="21"/>
    <connection from="1048" to="1077" fromLane="2" toLane="2" tl="C6" linkIndex="22"/>
    <connection from="1048" to="1075" fromLane="2" toLane="2" tl="C6" linkIndex="23"/>
    <connection from="1050" to="1045" fromLane="0" toLane="0" tl="B6" linkIndex="0"/>
    <connection from="1050" to="1046" fromLane="0" toLane="0" tl="B6" linkIndex="1"/>
    <connection from="1050" to="1046" fromLane="1" toLane="1" tl="B6" linkIndex="2"/>
    <connection from="1050" to="1046" fromLane="2" toLane="2" tl="B6" linkIndex="3"/>
    <connection from="1050" to="1048" fromLane="2" toLane="2" tl="B6" linkIndex="4"/>
    <connection from="1050" to="1047" fromLane="2" toLane="2" tl="B6" linkIndex="5"/>
    <connection from="1053" to="1058" fromLane="0" toLane="0" tl="C1" linkIndex="12"/>
    <connection from="1053" to="1057" fromLane="0" toLane="0" tl="C1" linkIndex="13"/>
    <connection from="1053" to="1057" fromLane="1" toLane="1" tl="C1" linkIndex="14"/>
    <connection from="1053" to="1057" fromLane="2" toLane="2" tl="C1" linkIndex="15"/>
    <connection from="1053" to="1055" fromLane="2" toLane="2" tl="C1" linkIndex="16"/>
    <connection from="1053" to="1056" fromLane="2" toLane="2" tl="C1" linkIndex="17"/>
    <connection from="1055" to="1027" fromLane="0" toLane="0" tl="B1" linkIndex="6"/>
    <connection from="1055" to="1025" fromLane="0" toLane="0" tl="B1" linkIndex="7"/>
    <connection from="1055" to="1025" fromLane="1" toLane="1" tl="B1" linkIndex="8"/>
    <connection from="1055" to="1025" fromLane="2" toLane="2" tl="B1" linkIndex="9"/>
    <connection from="1055" to="1026" fromLane="2" toLane="2" tl="B1" linkIndex="10"/>
    <connection from="1055" to="1028" fromLane="2" toLane="2" tl="B1" linkIndex="11"/>
    <connection from="1057" to="1062" fromLane="0" toLane="0" tl="18" linkIndex="8"/>
    <connection from="1057" to="1061" fromLane="0" toLane="0" tl="18" linkIndex="9"/>
    <connection from="1057" to="1061" fromLane="1" toLane="1" tl="18" linkIndex="10"/>
    <connection from="1057" to="1061" fromLane="2" toLane="2" tl="18" linkIndex="11"/>
    <connection from="1057" to="1060" fromLane="2" toLane="2" tl="18" linkIndex="12"/>
    <connection from="1060" to="1055" fromLane="0" toLane="0" tl="C1" linkIndex="0"/>
    <connection from="1060" to="1056" fromLane="0" toLane="0" tl="C1" linkIndex="1"/>
    <connection from="1060" to="1056" fromLane="1" toLane="1" tl="C1" linkIndex="2"/>
    <connection from="1060" to="1056" fromLane="2" toLane="2" tl="C1" linkIndex="3"/>
    <connection from="1060" to="1058" fromLane="2" toLane="2" tl="C1" linkIndex="4"/>
    <connection from="1060" to="1057" fromLane="2" toLane="2" tl="C1" linkIndex="5"/>
    <connection from="1061" to="1066" fromLane="0" toLane="0" tl="C3" linkIndex="12"/>
    <connection from="1061" to="1065" fromLane="0" toLane="0" tl="C3" linkIndex="13"/>
    <connection from="1061" to="1065" fromLane="1" toLane="1" tl="C3" linkIndex="14"/>
    <connection from="1061" to="1065" fromLane="2" toLane="2" tl="C3" linkIndex="15"/>
    <connection from="1061" to="1063" fromLane="2" toLane="2" tl="C3" linkIndex="16"/>
    <connection from="1061" to="1064" fromLane="2" toLane="2" tl="C3" linkIndex="17"/>
    <connection from="1063" to="1035" fromLane="0" toLane="0" tl="B3" linkIndex="6"/>
    <connection from="1063" to="1033" fromLane="0" toLane="0" tl="B3" linkIndex="7"/>
    <connection from="1063" to="1033" fromLane="1" toLane="1" tl="B3" linkIndex="8"/>
    <connection from="1063" to="1033" fromLane="2" toLane="2" tl="B3" linkIndex="9"/>
    <connection from="1063" to="1034" fromLane="2" toLane="2" tl="B3" linkIndex="10"/>
    <connection from="1063" to="1036" fromLane="2" toLane="2" tl="B3" linkIndex="11"/>
    <connection from="1064" to="1060" fromLane="0" toLane="0" tl="18" linkIndex="0"/>
    <connection from="1064" to="1060" fromLane="1" toLane="1" tl="18" linkIndex="1"/>
    <connection from="1064" to="1060" fromLane="2" toLane="2" tl="18" linkIndex="2"/>
    <connection from="1064" to="1062" fromLane="2" toLane="2" tl="18" linkIndex="3"/>
    <connection from="1064" to="1061" fromLane="2" toLane="2" tl="18" linkIndex="4"/>
    <connection from="1065" to="1069" fromLane="0" toLane="0" tl="20" linkIndex="5"/>
    <connection from="1065" to="1069" fromLane="1" toLane="1" tl="20" linkIndex="6"/>
    <connection from="1065" to="1069" fromLane="2" toLane="2" tl="20" linkIndex="7"/>
    <connection from="1065" to="1067" fromLane="2" toLane="2" tl="20" linkIndex="8"/>
    <connection from="1065" to="1068" fromLane="2" toLane="2" tl="20" linkIndex="9"/>
    <connection from="1067" to="1039" fromLane="0" toLane="0" tl="B4" linkIndex="6"/>
    <connection from="1067" to="1037" fromLane="0" toLane="0" tl="B4" linkIndex="7"/>
    <connection from="1067" to="1037" fromLane="1" toLane="1" tl="B4" linkIndex="8"/>
    <connection from="1067" to="1037" fromLane="2" toLane="2" tl="B4" linkIndex="9"/>
    <connection from="1067" to="1038" fromLane="2" toLane="2" tl="B4" linkIndex="10"/>
    <connection from="1067" to="1040" fromLane="2" toLane="2" tl="B4" linkIndex="11"/>
    <connection from="1068" to="1063" fromLane="0" toLane="0" tl="C3" linkIndex="0"/>
    <connection from="1068" to="1064" fromLane="0" toLane="0" tl="C3" linkIndex="1"/>
    <connection from="1068" to="1064" fromLane="1" toLane="1" tl="C3" linkIndex="2"/>
    <connection from="1068" to="1064" fromLane="2" toLane="2" tl="C3" linkIndex="3"/>
    <connection from="1068" to="1066" fromLane="2" toLane="2" tl="C3" linkIndex="4"/>
    <connection from="1068" to="1065" fromLane="2" toLane="2" tl="C3" linkIndex="5"/>
    <connection from="1069" to="1073" fromLane="0" toLane="0" tl="21" linkIndex="5"/>
    <connection from="1069" to="1073" fromLane="1" toLane="1" tl="21" linkIndex="6"/>
    <connection from="1069" to="1073" fromLane="2" toLane="2" tl="21" linkIndex="7"/>
    <connection from="1069" to="1071" fromLane="2" toLane="2" tl="21" linkIndex="8"/>
    <connection from="1069" to="1072" fromLane="2" toLane="2" tl="21" linkIndex="9"/>
    <connection from="1071" to="1043" fromLane="0" toLane="0" tl="B5" linkIndex="6"/>
    <connection from="1071" to="1041" fromLane="0" toLane="0" tl="B5" linkIndex="7"/>
    <connection from="1071" to="1041" fromLane="1" toLane="1" tl="B5" linkIndex="8"/>
    <connection from="1071" to="1041" fromLane="2" toLane="2" tl="B5" linkIndex="9"/>
    <connection from="1071" to="1042" fromLane="2" toLane="2" tl="B5" linkIndex="10"/>
    <connection from="1071" to="1044" fromLane="2" toLane="2" tl="B5" linkIndex="11"/>
    <connection from="1072" to="1067" fromLane="0" toLane="0" tl="20" linkIndex="0"/>
    <connection from="1072" to="1068" fromLane="0" toLane="0" tl="20" linkIndex="1"/>
    <connection from="1072" to="1068" fromLane="1" toLane="1" tl="20" linkIndex="2"/>
    <connection from="1072" to="1068" fromLane="2" toLane="2" tl="20" linkIndex="3"/>
    <connection from="1072" to="1069" fromLane="2" toLane="2" tl="20" linkIndex="4"/>
    <connection from="1073" to="1078" fromLane="0" toLane="0" tl="C6" linkIndex="12"/>
    <connection from="1073" to="1077" fromLane="0" toLane="0" tl="C6" linkIndex="13"/>
    <connection from="1073" to="1077" fromLane="1" toLane="1" tl="C6" linkIndex="14"/>
    <connection from="1073" to="1077" fromLane="2" toLane="2" tl="C6" linkIndex="15"/>
    <connection from="1073" to="1075" fromLane="2" toLane="2" tl="C6" linkIndex="16"/>
    <connection from="1073" to="1076" fromLane="2" toLane="2" tl="C6" linkIndex="17"/>
    <connection from="1075" to="1047" fromLane="0" toLane="0" tl="B6" linkIndex="6"/>
    <connection from="1075" to="1045" fromLane="0" toLane="0" tl="B6" linkIndex="7"/>
    <connection from="1075" to="1045" fromLane="1" toLane="1" tl="B6" linkIndex="8"/>
    <connection from="1075" to="1045" fromLane="2" toLane="2" tl="B6" linkIndex="9"/>
    <connection from="1075" to="1046" fromLane="2" toLane="2" tl="B6" linkIndex="10"/>
    <connection from="1075" to="1048" fromLane="2" toLane="2" tl="B6" linkIndex="11"/>
    <connection from="1076" to="1071" fromLane="0" toLane="0" tl="21" linkIndex="0"/>
    <connection from="1076" to="1072" fromLane="0" toLane="0" tl="21" linkIndex="1"/>
    <connection from="1076" to="1072" fromLane="1" toLane="1" tl="21" linkIndex="2"/>
    <connection from="1076" to="1072" fromLane="2" toLane="2" tl="21" linkIndex="3"/>
    <connection from="1076" to="1073" fromLane="2" toLane="2" tl="21" linkIndex="4"/>
    <connection from="1080" to="1075" fromLane="0" toLane="0" tl="C6" linkIndex="0"/>
    <connection from="1080" to="1076" fromLane="0" toLane="0" tl="C6" linkIndex="1"/>
    <connection from="1080" to="1076" fromLane="1" toLane="1" tl="C6" linkIndex="2"/>
    <connection from="1080" to="1076" fromLane="2" toLane="2" tl="C6" linkIndex="3"/>
    <connection from="1080" to="1078" fromLane="2" toLane="2" tl="C6" linkIndex="4"/>
    <connection from="1080" to="1077" fromLane="2" toLane="2" tl="C6" linkIndex="5"/>
    <connection from="1085" to="1057" fromLane="0" toLane="0" tl="C1" linkIndex="6"/>
    <connection from="1085" to="1055" fromLane="0" toLane="0" tl="C1" linkIndex="7"/>
    <connection from="1085" to="1055" fromLane="1" toLane="1" tl="C1" linkIndex="8"/>
    <connection from="1085" to="1055" fromLane="2" toLane="2" tl="C1" linkIndex="9"/>
    <connection from="1085" to="1056" fromLane="2" toLane="2" tl="C1" linkIndex="10"/>
    <connection from="1085" to="1058" fromLane="2" toLane="2" tl="C1" linkIndex="11"/>
    <connection from="1088" to="1116" fromLane="0" toLane="0" tl="E1" linkIndex="18"/>
    <connection from="1088" to="1118" fromLane="0" toLane="0" tl="E1" linkIndex="19"/>
    <connection from="1088" to="1118" fromLane="1" toLane="1" tl="E1" linkIndex="20"/>
    <connection from="1088" to="1118" fromLane="2" toLane="2" tl="E1" linkIndex="21"/>
    <connection from="1088" to="1117" fromLane="2" toLane="2" tl="E1" linkIndex="22"/>
    <connection from="1088" to="1115" fromLane="2" toLane="2" tl="E1" linkIndex="23"/>
    <connection from="1089" to="1061" fromLane="0" toLane="0" tl="18" linkIndex="5"/>
    <connection from="1089" to="1060" fromLane="2" toLane="2" tl="18" linkIndex="6"/>
    <connection from="1089" to="1062" fromLane="2" toLane="2" tl="18" linkIndex="7"/>
    <connection from="1092" to="1120" fromLane="0" toLane="0" tl="E2" linkIndex="18"/>
    <connection from="1092" to="1122" fromLane="0" toLane="0" tl="E2" linkIndex="19"/>
    <connection from="1092" to="1122" fromLane="1" toLane="1" tl="E2" linkIndex="20"/>
    <connection from="1092" to="1122" fromLane="2" toLane="2" tl="E2" linkIndex="21"/>
    <connection from="1092" to="1121" fromLane="2" toLane="2" tl="E2" linkIndex="22"/>
    <connection from="1092" to="1119" fromLane="2" toLane="2" tl="E2" linkIndex="23"/>
    <connection from="1093" to="1065" fromLane="0" toLane="0" tl="C3" linkIndex="6"/>
    <connection from="1093" to="1063" fromLane="0" toLane="0" tl="C3" linkIndex="7"/>
    <connection from="1093" to="1063" fromLane="1" toLane="1" tl="C3" linkIndex="8"/>
    <connection from="1093" to="1063" fromLane="2" toLane="2" tl="C3" linkIndex="9"/>
    <connection from="1093" to="1064" fromLane="2" toLane="2" tl="C3" linkIndex="10"/>
    <connection from="1093" to="1066" fromLane="2" toLane="2" tl="C3" linkIndex="11"/>
    <connection from="1096" to="1124" fromLane="0" toLane="0" tl="E3" linkIndex="18"/>
    <connection from="1096" to="1126" fromLane="0" toLane="0" tl="E3" linkIndex="19"/>
    <connection from="1096" to="1126" fromLane="1" toLane="1" tl="E3" linkIndex="20"/>
    <connection from="1096" to="1126" fromLane="2" toLane="2" tl="E3" linkIndex="21"/>